# generated using pymatgen
data_Ca6Mn2H24S4Lv(TeO10)3
_symmetry_space_group_name_H-M  'P -6 2 c'
_cell_length_a   8.54050000
_cell_length_b   8.54050000
_cell_length_c   10.80940000
_cell_angle_alpha   90.00000000
_cell_angle_beta   90.00000000
_cell_angle_gamma   120.00000000
_symmetry_Int_Tables_number   190
_chemical_formula_structural   Ca6Mn2H24S4Lv(TeO10)3
_chemical_formula_sum   'Ca6 Mn2 H24 S4 Lv1 Te3 O30'
_cell_volume   682.80833499
_cell_formula_units_Z   1
loop_
 _symmetry_equiv_pos_site_id
 _symmetry_equiv_pos_as_xyz
  1  'x, y, z'
  2  '-x+y, -x, -z+1/2'
  3  '-y, x-y, z'
  4  'x, y, -z+1/2'
  5  '-x+y, -x, z'
  6  '-y, x-y, -z+1/2'
  7  'y, x, z+1/2'
  8  '-x, -x+y, -z'
  9  'x-y, -y, z+1/2'
  10  'y, x, -z'
  11  '-x, -x+y, z+1/2'
  12  'x-y, -y, -z'
loop_
 _atom_site_type_symbol
 _atom_site_label
 _atom_site_symmetry_multiplicity
 _atom_site_fract_x
 _atom_site_fract_y
 _atom_site_fract_z
 _atom_site_occupancy
  Ca  Ca0  6  0.15138000  0.84790000  0.25000000  1.0
  Mn  Mn1  2  0.00000000  0.00000000  0.00000000  1.0
  H  H2  12  0.07600000  0.55500000  0.69300000  1.0
  H  H3  12  0.12500000  0.83600000  0.57600000  1.0
  S  S4  4  0.33333333  0.66666667  0.02544000  1.0
  Lv+  Lv5  4  0.33333333  0.66666667  0.61153000  0.25
  Te+  Te6  4  0.33333333  0.66666667  0.61153000  0.75
  O  O7  12  0.09660000  0.89450000  0.61070000  1.0
  O  O8  12  0.23652000  0.75810000  0.06891000  1.0
  O  O9  6  0.01530000  0.51470000  0.75000000  1.0
