# generated using pymatgen
data_Sc6Fl4.5Ge1.0Pt6Pb0.5
_symmetry_space_group_name_H-M  'P -6 2 c'
_cell_length_a   7.38370000
_cell_length_b   7.38370000
_cell_length_c   7.29470000
_cell_angle_alpha   90.00000000
_cell_angle_beta   90.00000000
_cell_angle_gamma   120.00000000
_symmetry_Int_Tables_number   190
_chemical_formula_structural   Sc6Fl4.5Ge1.0Pt6Pb0.5
_chemical_formula_sum   'Sc6 Fl4.5 Ge1.0 Pt6 Pb0.5'
_cell_volume   344.41824827
_cell_formula_units_Z   1
loop_
 _symmetry_equiv_pos_site_id
 _symmetry_equiv_pos_as_xyz
  1  'x, y, z'
  2  '-x+y, -x, -z+1/2'
  3  '-y, x-y, z'
  4  'x, y, -z+1/2'
  5  '-x+y, -x, z'
  6  '-y, x-y, -z+1/2'
  7  'y, x, z+1/2'
  8  '-x, -x+y, -z'
  9  'x-y, -y, z+1/2'
  10  'y, x, -z'
  11  '-x, -x+y, z+1/2'
  12  'x-y, -y, -z'
loop_
 _atom_site_type_symbol
 _atom_site_label
 _atom_site_symmetry_multiplicity
 _atom_site_fract_x
 _atom_site_fract_y
 _atom_site_fract_z
 _atom_site_occupancy
  Sc  Sc0  6  0.01910000  0.40470000  0.75000000  1.0
  Fl+  Fl1  6  0.00000000  0.72699000  0.00000000  0.75
  Ge+  Ge2  6  0.00000000  0.72699000  0.00000000
  0.16666666666666666
  Pb+  Pb3  6  0.00000000  0.72699000  0.00000000
  0.08333333333333333
  Pt  Pt4  4  0.33333333  0.66666667  0.03656000  1.0
  Pt  Pt5  2  0.00000000  0.00000000  0.25000000  1.0
