# generated using pymatgen
data_Tc3Re1Lv7.66666667Te0.33333333
_symmetry_space_group_name_H-M  'P b c n'
_cell_length_a   4.80940000
_cell_length_b   5.64330000
_cell_length_c   4.60070000
_cell_angle_alpha   90.00000000
_cell_angle_beta   90.00000000
_cell_angle_gamma   90.00000000
_symmetry_Int_Tables_number   60
_chemical_formula_structural   Tc3Re1Lv7.66666667Te0.33333333
_chemical_formula_sum   'Tc3 Re1 Lv7.66666667 Te0.33333333'
_cell_volume   124.86707891
_cell_formula_units_Z   1
loop_
 _symmetry_equiv_pos_site_id
 _symmetry_equiv_pos_as_xyz
  1  'x, y, z'
  2  '-x, -y, -z'
  3  '-x+1/2, -y+1/2, z+1/2'
  4  'x+1/2, y+1/2, -z+1/2'
  5  'x+1/2, -y+1/2, -z'
  6  '-x+1/2, y+1/2, z'
  7  '-x, y, -z+1/2'
  8  'x, -y, z+1/2'
loop_
 _atom_type_symbol
 _atom_type_oxidation_number
  Re+  1.0
  Tc+  1.0
  Te+  1.0
  Lv+  1.0
loop_
 _atom_site_type_symbol
 _atom_site_label
 _atom_site_symmetry_multiplicity
 _atom_site_fract_x
 _atom_site_fract_y
 _atom_site_fract_z
 _atom_site_occupancy
  Tc+  Tc0  4  0.00000000  0.11000000  0.25000000  0.75
  Re+  Re1  4  0.00000000  0.11000000  0.25000000  0.25
  Lv+  Lv2  8  0.25000000  0.14000000  0.62500000
  0.9583333333333334
  Te+  Te3  8  0.25000000  0.14000000  0.62500000
  0.041666666666666664
