# generated using pymatgen
data_Ba0.16666667Sr0.16666667Mg0.16666667Be0.5Co6Ge6
_symmetry_space_group_name_H-M  'P 6/m m m'
_cell_length_a   5.07090000
_cell_length_b   5.07090000
_cell_length_c   7.74460000
_cell_angle_alpha   90.00000000
_cell_angle_beta   90.00000000
_cell_angle_gamma   120.00000000
_symmetry_Int_Tables_number   191
_chemical_formula_structural
Ba0.16666667Sr0.16666667Mg0.16666667Be0.5Co6Ge6
_chemical_formula_sum
'Ba0.16666667 Sr0.16666667 Mg0.16666667 Be0.5 Co6 Ge6'
_cell_volume   172.46450089
_cell_formula_units_Z   1
loop_
 _symmetry_equiv_pos_site_id
 _symmetry_equiv_pos_as_xyz
  1  'x, y, z'
  2  '-x, -y, -z'
  3  'x-y, x, z'
  4  '-x+y, -x, -z'
  5  '-y, x-y, z'
  6  'y, -x+y, -z'
  7  '-x, -y, z'
  8  'x, y, -z'
  9  '-x+y, -x, z'
  10  'x-y, x, -z'
  11  'y, -x+y, z'
  12  '-y, x-y, -z'
  13  '-y, -x, -z'
  14  'y, x, z'
  15  '-x, -x+y, -z'
  16  'x, x-y, z'
  17  '-x+y, y, -z'
  18  'x-y, -y, z'
  19  'y, x, -z'
  20  '-y, -x, z'
  21  'x, x-y, -z'
  22  '-x, -x+y, z'
  23  'x-y, -y, -z'
  24  '-x+y, y, z'
loop_
 _atom_site_type_symbol
 _atom_site_label
 _atom_site_symmetry_multiplicity
 _atom_site_fract_x
 _atom_site_fract_y
 _atom_site_fract_z
 _atom_site_occupancy
  Mg+  Mg0  1  0.00000000  0.00000000  0.00000000
  0.16666666666666666
  Be+  Be1  1  0.00000000  0.00000000  0.00000000  0.5
  Sr+  Sr2  1  0.00000000  0.00000000  0.00000000
  0.16666666666666666
  Ba+  Ba3  1  0.00000000  0.00000000  0.00000000
  0.16666666666666666
  Co  Co4  6  0.00000000  0.50000000  0.24961000  1.0
  Ge  Ge5  2  0.00000000  0.00000000  0.33851000  1.0
  Ge  Ge6  2  0.33333333  0.66666667  0.00000000  1.0
  Ge  Ge7  2  0.33333333  0.66666667  0.50000000  1.0
