# generated using pymatgen
data_Ta0.5Nb0.25Al0.5Tl1.25V0.25Ga0.25
_symmetry_space_group_name_H-M  'P 6/m m m'
_cell_length_a   3.11000000
_cell_length_b   3.11000000
_cell_length_c   3.27000000
_cell_angle_alpha   90.00000000
_cell_angle_beta   90.00000000
_cell_angle_gamma   120.00000000
_symmetry_Int_Tables_number   191
_chemical_formula_structural   Ta0.5Nb0.25Al0.5Tl1.25V0.25Ga0.25
_chemical_formula_sum   'Ta0.5 Nb0.25 Al0.5 Tl1.25 V0.25 Ga0.25'
_cell_volume   27.39044969
_cell_formula_units_Z   1
loop_
 _symmetry_equiv_pos_site_id
 _symmetry_equiv_pos_as_xyz
  1  'x, y, z'
  2  '-x, -y, -z'
  3  'x-y, x, z'
  4  '-x+y, -x, -z'
  5  '-y, x-y, z'
  6  'y, -x+y, -z'
  7  '-x, -y, z'
  8  'x, y, -z'
  9  '-x+y, -x, z'
  10  'x-y, x, -z'
  11  'y, -x+y, z'
  12  '-y, x-y, -z'
  13  '-y, -x, -z'
  14  'y, x, z'
  15  '-x, -x+y, -z'
  16  'x, x-y, z'
  17  '-x+y, y, -z'
  18  'x-y, -y, z'
  19  'y, x, -z'
  20  '-y, -x, z'
  21  'x, x-y, -z'
  22  '-x, -x+y, z'
  23  'x-y, -y, -z'
  24  '-x+y, y, z'
loop_
 _atom_type_symbol
 _atom_type_oxidation_number
  Ta+  1.0
  Nb+  1.0
  Al+  1.0
  Tl+  1.0
  V+  1.0
  Ga+  1.0
loop_
 _atom_site_type_symbol
 _atom_site_label
 _atom_site_symmetry_multiplicity
 _atom_site_fract_x
 _atom_site_fract_y
 _atom_site_fract_z
 _atom_site_occupancy
  Nb+  Nb0  1  0.00000000  0.00000000  0.00000000  0.25
  Ta+  Ta1  1  0.00000000  0.00000000  0.00000000  0.5
  V+  V2  1  0.00000000  0.00000000  0.00000000  0.25
  Tl+  Tl3  2  0.33333333  0.66666667  0.50000000  0.625
  Ga+  Ga4  2  0.33333333  0.66666667  0.50000000  0.125
  Al+  Al5  2  0.33333333  0.66666667  0.50000000  0.25
