# generated using pymatgen
data_Nd0.33333333Sm0.66666667Pb0.5C1.5
_symmetry_space_group_name_H-M  'P 6/m m m'
_cell_length_a   3.81600000
_cell_length_b   3.81600000
_cell_length_c   4.10700000
_cell_angle_alpha   90.00000000
_cell_angle_beta   90.00000000
_cell_angle_gamma   120.00000000
_symmetry_Int_Tables_number   191
_chemical_formula_structural   Nd0.33333333Sm0.66666667Pb0.5C1.5
_chemical_formula_sum   'Nd0.33333333 Sm0.66666667 Pb0.5 C1.5'
_cell_volume   51.79311917
_cell_formula_units_Z   1
loop_
 _symmetry_equiv_pos_site_id
 _symmetry_equiv_pos_as_xyz
  1  'x, y, z'
  2  '-x, -y, -z'
  3  'x-y, x, z'
  4  '-x+y, -x, -z'
  5  '-y, x-y, z'
  6  'y, -x+y, -z'
  7  '-x, -y, z'
  8  'x, y, -z'
  9  '-x+y, -x, z'
  10  'x-y, x, -z'
  11  'y, -x+y, z'
  12  '-y, x-y, -z'
  13  '-y, -x, -z'
  14  'y, x, z'
  15  '-x, -x+y, -z'
  16  'x, x-y, z'
  17  '-x+y, y, -z'
  18  'x-y, -y, z'
  19  'y, x, -z'
  20  '-y, -x, z'
  21  'x, x-y, -z'
  22  '-x, -x+y, z'
  23  'x-y, -y, -z'
  24  '-x+y, y, z'
loop_
 _atom_type_symbol
 _atom_type_oxidation_number
  Nd+  1.0
  Sm+  1.0
  Pb+  1.0
  C+  1.0
loop_
 _atom_site_type_symbol
 _atom_site_label
 _atom_site_symmetry_multiplicity
 _atom_site_fract_x
 _atom_site_fract_y
 _atom_site_fract_z
 _atom_site_occupancy
  Nd+  Nd0  1  0.00000000  0.00000000  0.00000000
  0.3333333333333333
  Sm+  Sm1  1  0.00000000  0.00000000  0.00000000
  0.6666666666666666
  C+  C2  2  0.33333333  0.66666667  0.50000000  0.75
  Pb+  Pb3  2  0.33333333  0.66666667  0.50000000  0.25
