# generated using pymatgen
data_Cr0.5Po1Te0.5Mo1W0.5C2N16O12.5
_symmetry_space_group_name_H-M  'I 4 m m'
_cell_length_a   7.42600000
_cell_length_b   7.42600000
_cell_length_c   11.11300000
_cell_angle_alpha   90.00000000
_cell_angle_beta   90.00000000
_cell_angle_gamma   90.00000000
_symmetry_Int_Tables_number   107
_chemical_formula_structural   Cr0.5Po1Te0.5Mo1W0.5C2N16O12.5
_chemical_formula_sum   'Cr0.5 Po1 Te0.5 Mo1 W0.5 C2 N16 O12.5'
_cell_volume   612.83167479
_cell_formula_units_Z   1
loop_
 _symmetry_equiv_pos_site_id
 _symmetry_equiv_pos_as_xyz
  1  'x, y, z'
  2  '-y, x, z'
  3  '-x, -y, z'
  4  'y, -x, z'
  5  '-x, y, z'
  6  'y, x, z'
  7  'x, -y, z'
  8  '-y, -x, z'
  9  'x+1/2, y+1/2, z+1/2'
  10  '-y+1/2, x+1/2, z+1/2'
  11  '-x+1/2, -y+1/2, z+1/2'
  12  'y+1/2, -x+1/2, z+1/2'
  13  '-x+1/2, y+1/2, z+1/2'
  14  'y+1/2, x+1/2, z+1/2'
  15  'x+1/2, -y+1/2, z+1/2'
  16  '-y+1/2, -x+1/2, z+1/2'
loop_
 _atom_type_symbol
 _atom_type_oxidation_number
  Cr0+  0.0
  Po0+  0.0
  Te0+  0.0
  Mo0+  0.0
  W0+  0.0
  C0+  0.0
  N0+  0.0
  O0+  0.0
loop_
 _atom_site_type_symbol
 _atom_site_label
 _atom_site_symmetry_multiplicity
 _atom_site_fract_x
 _atom_site_fract_y
 _atom_site_fract_z
 _atom_site_occupancy
  W0+  W0  2  0.00000000  0.00000000  0.00000000  0.25
  Mo0+  Mo1  2  0.00000000  0.00000000  0.00000000  0.5
  Cr0+  Cr2  2  0.00000000  0.00000000  0.00000000  0.25
  Te0+  Te3  2  0.00000000  0.00000000  0.39010000  0.25
  Po0+  Po4  2  0.00000000  0.00000000  0.39010000  0.5
  O0+  O5  2  0.00000000  0.00000000  0.39010000  0.25
  C0+  C6  2  0.00000000  0.00000000  0.28140000  1.0
  N0+  N7  8  0.19790000  0.19790000  0.99440000  1.0
  N0+  N8  4  0.00000000  0.50000000  0.24680000  1.0
  N0+  N9  2  0.00000000  0.00000000  0.17680000  1.0
  N0+  N10  2  0.00000000  0.00000000  0.81200000  1.0
  O0+  O11  8  0.00000000  0.35620000  0.68860000  1.0
  O0+  O12  4  0.00000000  0.50000000  0.35420000  1.0
