# generated using pymatgen
data_K24Na16Si0.75As24C7.25
_symmetry_space_group_name_H-M  'C m c a'
_cell_length_a   20.43500000
_cell_length_b   6.82000000
_cell_length_c   15.35100000
_cell_angle_alpha   90.00000000
_cell_angle_beta   90.00000000
_cell_angle_gamma   90.00000000
_symmetry_Int_Tables_number   64
_chemical_formula_structural   K24Na16Si0.75As24C7.25
_chemical_formula_sum   'K24 Na16 Si0.75 As24 C7.25'
_cell_volume   2139.41821170
_cell_formula_units_Z   1
loop_
 _symmetry_equiv_pos_site_id
 _symmetry_equiv_pos_as_xyz
  1  'x, y, z'
  2  '-x, -y, -z'
  3  '-x, -y+1/2, z+1/2'
  4  'x, y+1/2, -z+1/2'
  5  'x, -y, -z'
  6  '-x, y, z'
  7  '-x, y+1/2, -z+1/2'
  8  'x, -y+1/2, z+1/2'
  9  'x+1/2, y+1/2, z'
  10  '-x+1/2, -y+1/2, -z'
  11  '-x+1/2, -y, z+1/2'
  12  'x+1/2, y, -z+1/2'
  13  'x+1/2, -y+1/2, -z'
  14  '-x+1/2, y+1/2, z'
  15  '-x+1/2, y, -z+1/2'
  16  'x+1/2, -y, z+1/2'
loop_
 _atom_type_symbol
 _atom_type_oxidation_number
  K+  1.0
  Na+  1.0
  Si4+  4.0
  As3-  -3.0
  C4+  4.0
loop_
 _atom_site_type_symbol
 _atom_site_label
 _atom_site_symmetry_multiplicity
 _atom_site_fract_x
 _atom_site_fract_y
 _atom_site_fract_z
 _atom_site_occupancy
  K+  K0  16  0.16600000  0.23070000  0.17580000  1.0
  K+  K1  8  0.00000000  0.23960000  0.82030000  1.0
  Na+  Na2  8  0.08080000  0.00000000  0.00000000  1.0
  Na+  Na3  8  0.24460000  0.00000000  0.00000000  1.0
  As3-  As4  16  0.15810000  0.22140000  0.39430000  1.0
  As3-  As5  8  0.00000000  0.20360000  0.59490000  1.0
  Si4+  Si6  8  0.08830000  0.00000000  0.50000000  0.09375
  C4+  C7  8  0.08830000  0.00000000  0.50000000  0.90625
