# generated using pymatgen
data_Br5FTsAt
_symmetry_space_group_name_H-M  'B m a b'
_cell_length_a   7.27007000
_cell_length_b   9.79344000
_cell_length_c   4.79004000
_cell_angle_alpha   90.00000000
_cell_angle_beta   90.00000000
_cell_angle_gamma   90.00000000
_symmetry_Int_Tables_number   64
_chemical_formula_structural   Br5FTsAt
_chemical_formula_sum   'Br5 F1 Ts1 At1'
_cell_volume   341.04603085
_cell_formula_units_Z   1
loop_
 _symmetry_equiv_pos_site_id
 _symmetry_equiv_pos_as_xyz
  1  'x, y, z'
  2  '-x, -y, -z'
  3  '-x+1/2, y+1/2, -z'
  4  'x+1/2, -y+1/2, z'
  5  'x, -y, -z'
  6  '-x, y, z'
  7  '-x+1/2, -y+1/2, z'
  8  'x+1/2, y+1/2, -z'
  9  'x+1/2, y, z+1/2'
  10  '-x+1/2, -y, -z+1/2'
  11  '-x, y+1/2, -z+1/2'
  12  'x, -y+1/2, z+1/2'
  13  'x+1/2, -y, -z+1/2'
  14  '-x+1/2, y, z+1/2'
  15  '-x, -y+1/2, z+1/2'
  16  'x, y+1/2, -z+1/2'
loop_
 _atom_type_symbol
 _atom_type_oxidation_number
  At+  1.0
  Br+  1.0
  F+  1.0
  Ts+  1.0
loop_
 _atom_site_type_symbol
 _atom_site_label
 _atom_site_symmetry_multiplicity
 _atom_site_fract_x
 _atom_site_fract_y
 _atom_site_fract_z
 _atom_site_occupancy
  Br+  Br0  8  0.00000000  0.11560000  0.14930000  0.625
  F+  F1  8  0.00000000  0.11560000  0.14930000  0.125
  Ts+  Ts2  8  0.00000000  0.11560000  0.14930000  0.125
  At+  At3  8  0.00000000  0.11560000  0.14930000  0.125
