# generated using pymatgen
data_Ce6Ga2BNh(ClO2)6
_symmetry_space_group_name_H-M  'P 63/m'
_cell_length_a   9.20080000
_cell_length_b   9.20080000
_cell_length_c   5.80790000
_cell_angle_alpha   90.00000000
_cell_angle_beta   90.00000000
_cell_angle_gamma   120.00000000
_symmetry_Int_Tables_number   176
_chemical_formula_structural   Ce6Ga2BNh(ClO2)6
_chemical_formula_sum   'Ce6 Ga2 B1 Nh1 Cl6 O12'
_cell_volume   425.79537782
_cell_formula_units_Z   1
loop_
 _symmetry_equiv_pos_site_id
 _symmetry_equiv_pos_as_xyz
  1  'x, y, z'
  2  '-x, -y, -z'
  3  'x-y, x, z+1/2'
  4  '-x+y, -x, -z+1/2'
  5  '-y, x-y, z'
  6  'y, -x+y, -z'
  7  '-x, -y, z+1/2'
  8  'x, y, -z+1/2'
  9  '-x+y, -x, z'
  10  'x-y, x, -z'
  11  'y, -x+y, z+1/2'
  12  '-y, x-y, -z+1/2'
loop_
 _atom_type_symbol
 _atom_type_oxidation_number
  Ce0+  0.0
  Ga0+  0.0
  B0+  0.0
  Cl0+  0.0
  O0+  0.0
  Nh0+  0.0
loop_
 _atom_site_type_symbol
 _atom_site_label
 _atom_site_symmetry_multiplicity
 _atom_site_fract_x
 _atom_site_fract_y
 _atom_site_fract_z
 _atom_site_occupancy
  Ce0+  Ce0  6  0.05095000  0.66473000  0.75000000  1.0
  B0+  B1  4  0.33333333  0.66666667  0.01430000  0.25
  Ga0+  Ga2  4  0.33333333  0.66666667  0.01430000  0.5
  Nh0+  Nh3  4  0.33333333  0.66666667  0.01430000  0.25
  Cl0+  Cl4  6  0.03663000  0.79703000  0.25000000  1.0
  O0+  O5  12  0.17080000  0.53590000  0.50180000  1.0
