# generated using pymatgen
data_KLi3Zr2SiGe3PbCO18
_symmetry_space_group_name_H-M  'P 63/m'
_cell_length_a   6.93600000
_cell_length_b   6.93600000
_cell_length_c   10.18220000
_cell_angle_alpha   90.00000000
_cell_angle_beta   90.00000000
_cell_angle_gamma   120.00000000
_symmetry_Int_Tables_number   176
_chemical_formula_structural   KLi3Zr2SiGe3PbCO18
_chemical_formula_sum   'K1 Li3 Zr2 Si1.0 Ge3 Pb1.0 C1.0 O18'
_cell_volume   424.21930086
_cell_formula_units_Z   1
loop_
 _symmetry_equiv_pos_site_id
 _symmetry_equiv_pos_as_xyz
  1  'x, y, z'
  2  '-x, -y, -z'
  3  'x-y, x, z+1/2'
  4  '-x+y, -x, -z+1/2'
  5  '-y, x-y, z'
  6  'y, -x+y, -z'
  7  '-x, -y, z+1/2'
  8  'x, y, -z+1/2'
  9  '-x+y, -x, z'
  10  'x-y, x, -z'
  11  'y, -x+y, z+1/2'
  12  '-y, x-y, -z+1/2'
loop_
 _atom_site_type_symbol
 _atom_site_label
 _atom_site_symmetry_multiplicity
 _atom_site_fract_x
 _atom_site_fract_y
 _atom_site_fract_z
 _atom_site_occupancy
  K+  K0  4  0.33333333  0.66666667  0.05840000  0.25
  Li+  Li1  4  0.33333333  0.66666667  0.05840000  0.75
  Zr  Zr2  2  0.00000000  0.00000000  0.00000000  1
  Ge+  Ge3  6  0.13080000  0.38920000  0.75000000  0.5
  Si+  Si4  6  0.13080000  0.38920000  0.75000000
  0.16666666666666666
  C+  C5  6  0.13080000  0.38920000  0.75000000  0.16666666666666666
  Pb+  Pb6  6  0.13080000  0.38920000  0.75000000
  0.16666666666666666
  O  O7  12  0.01560000  0.25850000  0.61770000  1
  O  O8  6  0.09000000  0.60200000  0.75000000  1
