# generated using pymatgen
data_K3.5Si8H0.5O18
_symmetry_space_group_name_H-M  'P 63/m'
_cell_length_a   6.61200000
_cell_length_b   6.61200000
_cell_length_c   9.51000000
_cell_angle_alpha   90.00000000
_cell_angle_beta   90.00000000
_cell_angle_gamma   120.00000000
_symmetry_Int_Tables_number   176
_chemical_formula_structural   K3.5Si8H0.5O18
_chemical_formula_sum   'K3.5 Si8 H0.5 O18'
_cell_volume   360.06162604
_cell_formula_units_Z   1
loop_
 _symmetry_equiv_pos_site_id
 _symmetry_equiv_pos_as_xyz
  1  'x, y, z'
  2  '-x, -y, -z'
  3  'x-y, x, z+1/2'
  4  '-x+y, -x, -z+1/2'
  5  '-y, x-y, z'
  6  'y, -x+y, -z'
  7  '-x, -y, z+1/2'
  8  'x, y, -z+1/2'
  9  '-x+y, -x, z'
  10  'x-y, x, -z'
  11  'y, -x+y, z+1/2'
  12  '-y, x-y, -z+1/2'
loop_
 _atom_site_type_symbol
 _atom_site_label
 _atom_site_symmetry_multiplicity
 _atom_site_fract_x
 _atom_site_fract_y
 _atom_site_fract_z
 _atom_site_occupancy
  K+  K0  4  0.33333333  0.66666667  0.05778000  0.875
  H+  H1  4  0.33333333  0.66666667  0.05778000  0.125
  Si  Si2  6  0.13189000  0.36532000  0.75000000  1
  Si  Si3  2  0.00000000  0.00000000  0.00000000  1
  O  O4  12  0.02296000  0.23203000  0.60611000  1
  O  O5  6  0.07339000  0.58189000  0.75000000  1
