# generated using pymatgen
data_Nd1.66666667Eu3Er1.33333333Cr0.33333333B2Mo0.33333333Sg0.33333333W1O18
_symmetry_space_group_name_H-M  'P 3'
_cell_length_a   8.58000000
_cell_length_b   8.58000000
_cell_length_c   5.41000000
_cell_angle_alpha   90.00000000
_cell_angle_beta   90.00000000
_cell_angle_gamma   120.00000000
_symmetry_Int_Tables_number   143
_chemical_formula_structural
Nd1.66666667Eu3Er1.33333333Cr0.33333333B2Mo0.33333333Sg0.33333333W1O18
_chemical_formula_sum
;
Nd1.66666667 Eu3 Er1.33333333 Cr0.33333333 B2 Mo0.33333333
Sg0.33333333 W1 O18
;
_cell_volume   344.90736842
_cell_formula_units_Z   1
loop_
 _symmetry_equiv_pos_site_id
 _symmetry_equiv_pos_as_xyz
  1  'x, y, z'
  2  '-y, x-y, z'
  3  '-x+y, -x, z'
loop_
 _atom_type_symbol
 _atom_type_oxidation_number
  Nd0+  0.0
  Eu0+  0.0
  Er0+  0.0
  Cr0+  0.0
  B0+  0.0
  Mo0+  0.0
  W0+  0.0
  O0+  0.0
  Sg0+  0.0
loop_
 _atom_site_type_symbol
 _atom_site_label
 _atom_site_symmetry_multiplicity
 _atom_site_fract_x
 _atom_site_fract_y
 _atom_site_fract_z
 _atom_site_occupancy
  Er0+  Er0  3  0.02570000  0.60950000  0.78960000
  0.4444444444444444
  Nd0+  Nd1  3  0.02570000  0.60950000  0.78960000
  0.5555555555555556
  Eu0+  Eu2  3  0.30780000  0.05840000  0.28920000  1.0
  B0+  B3  1  0.66666667  0.33333333  0.09000000  1.0
  B0+  B4  1  0.66666667  0.33333333  0.63600000  1.0
  Cr0+  Cr5  1  0.33333333  0.66666667  0.25000000
  0.3333333333333333
  Mo0+  Mo6  1  0.33333333  0.66666667  0.25000000
  0.3333333333333333
  Sg0+  Sg7  1  0.33333333  0.66666667  0.25000000
  0.3333333333333333
  W0+  W8  1  0.00000000  0.00000000  0.74930000  1.0
  O0+  O9  3  0.05200000  0.85100000  0.53200000  1.0
  O0+  O10  3  0.13900000  0.53700000  0.46800000  1.0
  O0+  O11  3  0.18500000  0.47100000  0.02500000  1.0
  O0+  O12  3  0.19500000  0.13400000  0.95100000  1.0
  O0+  O13  3  0.48900000  0.20500000  0.65300000  1.0
  O0+  O14  3  0.53900000  0.38600000  0.11600000  1.0
