# generated using pymatgen
data_PoBi16Se8S2O37
_symmetry_space_group_name_H-M  'A b m 2'
_cell_length_a   11.42500000
_cell_length_b   16.24400000
_cell_length_c   5.48700000
_cell_angle_alpha   90.00000000
_cell_angle_beta   90.00000000
_cell_angle_gamma   90.00000000
_symmetry_Int_Tables_number   39
_chemical_formula_structural   PoBi16Se8S2O37
_chemical_formula_sum   'Po1 Bi16 Se8 S2 O37'
_cell_volume   1018.31970990
_cell_formula_units_Z   1
loop_
 _symmetry_equiv_pos_site_id
 _symmetry_equiv_pos_as_xyz
  1  'x, y, z'
  2  '-x, -y, z'
  3  '-x, y, z+1/2'
  4  'x, -y, z+1/2'
  5  'x, y+1/2, z+1/2'
  6  '-x, -y+1/2, z+1/2'
  7  '-x, y+1/2, z'
  8  'x, -y+1/2, z'
loop_
 _atom_site_type_symbol
 _atom_site_label
 _atom_site_symmetry_multiplicity
 _atom_site_fract_x
 _atom_site_fract_y
 _atom_site_fract_z
 _atom_site_occupancy
  Bi  Bi0  8  0.38938000  0.08543000  0.50902000  1.0
  Bi  Bi1  4  0.12332000  0.25000000  0.50594000  1.0
  Bi  Bi2  4  0.37888000  0.25000000  0.97010000  1.0
  Se  Se3  8  0.14184000  0.08666000  0.01570000  1.0
  O+  O4  4  0.29730000  0.25000000  0.60700000  0.25
  S+  S5  4  0.29730000  0.25000000  0.60700000  0.5
  Po+  Po6  4  0.29730000  0.25000000  0.60700000  0.25
  O  O7  8  0.08090000  0.14870000  0.80400000  1.0
  O  O8  8  0.19540000  0.15500000  0.22300000  1.0
  O  O9  8  0.26880000  0.05650000  0.89000000  1.0
  O  O10  8  0.48770000  0.16190000  0.78100000  1.0
  O  O11  4  0.50000000  0.00000000  0.21900000  1.0
