# generated using pymatgen
data_Ba3RaMg2Ge2(PbO7)2
_symmetry_space_group_name_H-M  'P -4 21 m'
_cell_length_a   7.83380000
_cell_length_b   7.83380000
_cell_length_c   5.00820000
_cell_angle_alpha   90.00000000
_cell_angle_beta   90.00000000
_cell_angle_gamma   90.00000000
_symmetry_Int_Tables_number   113
_chemical_formula_structural   Ba3RaMg2Ge2(PbO7)2
_chemical_formula_sum   'Ba3 Ra1 Mg2 Ge2 Pb2 O14'
_cell_volume   307.34533326
_cell_formula_units_Z   1
loop_
 _symmetry_equiv_pos_site_id
 _symmetry_equiv_pos_as_xyz
  1  'x, y, z'
  2  'y, -x, -z'
  3  '-x, -y, z'
  4  '-y, x, -z'
  5  'x+1/2, -y+1/2, -z'
  6  'y+1/2, x+1/2, z'
  7  '-x+1/2, y+1/2, -z'
  8  '-y+1/2, -x+1/2, z'
loop_
 _atom_site_type_symbol
 _atom_site_label
 _atom_site_symmetry_multiplicity
 _atom_site_fract_x
 _atom_site_fract_y
 _atom_site_fract_z
 _atom_site_occupancy
  Ba+  Ba0  4  0.16760000  0.66760000  0.49350000  0.75
  Ra+  Ra1  4  0.16760000  0.66760000  0.49350000  0.25
  Mg  Mg2  2  0.00000000  0.00000000  0.00000000  1
  Ge+  Ge3  4  0.13960000  0.36040000  0.93580000  0.5
  Pb+  Pb4  4  0.13960000  0.36040000  0.93580000  0.5
  O  O5  8  0.07980000  0.18620000  0.78560000  1
  O  O6  4  0.14070000  0.35930000  0.25290000  1
  O  O7  2  0.00000000  0.50000000  0.82010000  1
