# generated using pymatgen
data_K3NaCe3H2Se3SN18LvO49
_symmetry_space_group_name_H-M  'P -3'
_cell_length_a   13.57370000
_cell_length_b   13.57370000
_cell_length_c   6.66240000
_cell_angle_alpha   90.00000000
_cell_angle_beta   90.00000000
_cell_angle_gamma   120.00000000
_symmetry_Int_Tables_number   147
_chemical_formula_structural   K3NaCe3H2Se3SN18LvO49
_chemical_formula_sum   'K3 Na1.0 Ce3 H2.0 Se3 S1.0 N18 Lv1.0 O49'
_cell_volume   1063.06012429
_cell_formula_units_Z   1
loop_
 _symmetry_equiv_pos_site_id
 _symmetry_equiv_pos_as_xyz
  1  'x, y, z'
  2  '-x, -y, -z'
  3  '-y, x-y, z'
  4  'y, -x+y, -z'
  5  '-x+y, -x, z'
  6  'x-y, x, -z'
loop_
 _atom_site_type_symbol
 _atom_site_label
 _atom_site_symmetry_multiplicity
 _atom_site_fract_x
 _atom_site_fract_y
 _atom_site_fract_z
 _atom_site_occupancy
  Ce  Ce0  2  0.33333333  0.66666667  0.51053000  1
  Ce  Ce1  1  0.00000000  0.00000000  0.00000000  1
  Na+  Na2  6  0.00696000  0.32616000  0.22270000
  0.16666666666666666
  K+  K3  6  0.00696000  0.32616000  0.22270000  0.5
  H+  H4  6  0.00696000  0.32616000  0.22270000  0.3333333333333333
  N  N5  6  0.00970000  0.83090000  0.26760000  1
  N  N6  6  0.13880000  0.61650000  0.25180000  1
  N  N7  6  0.19720000  0.47320000  0.77680000  1
  Se+  Se8  6  0.06460000  0.13810000  0.71290000  0.5
  Lv+  Lv9  6  0.06460000  0.13810000  0.71290000
  0.16666666666666666
  S+  S10  6  0.06460000  0.13810000  0.71290000
  0.16666666666666666
  O+  O11  6  0.06460000  0.13810000  0.71290000
  0.16666666666666666
  O  O12  6  0.01980000  0.76890000  0.38390000  1
  O  O13  6  0.05910000  0.59250000  0.14210000  1
  O  O14  6  0.07340000  0.87170000  0.11270000  1
  O  O15  6  0.13000000  0.55260000  0.40050000  1
  O  O16  6  0.15000000  0.39330000  0.89330000  1
  O  O17  6  0.20270000  0.56760000  0.80210000  1
  O  O18  6  0.21760000  0.75300000  0.62110000  1
  O  O19  6  0.23660000  0.70350000  0.22950000  1
