# generated using pymatgen
data_Ra0.22222222Sr0.44444444Ca0.11111111Mg2Be0.22222222H6O6
_symmetry_space_group_name_H-M  'P -3'
_cell_length_a   4.58040000
_cell_length_b   4.58040000
_cell_length_c   4.84350000
_cell_angle_alpha   90.00000000
_cell_angle_beta   90.00000000
_cell_angle_gamma   120.00000000
_symmetry_Int_Tables_number   147
_chemical_formula_structural
Ra0.22222222Sr0.44444444Ca0.11111111Mg2Be0.22222222H6O6
_chemical_formula_sum
'Ra0.22222222 Sr0.44444444 Ca0.11111111 Mg2 Be0.22222222 H6 O6'
_cell_volume   88.00285215
_cell_formula_units_Z   1
loop_
 _symmetry_equiv_pos_site_id
 _symmetry_equiv_pos_as_xyz
  1  'x, y, z'
  2  '-x, -y, -z'
  3  '-y, x-y, z'
  4  'y, -x+y, -z'
  5  '-x+y, -x, z'
  6  'x-y, x, -z'
loop_
 _atom_site_type_symbol
 _atom_site_label
 _atom_site_symmetry_multiplicity
 _atom_site_fract_x
 _atom_site_fract_y
 _atom_site_fract_z
 _atom_site_occupancy
  Sr+  Sr0  1  0.00000000  0.00000000  0.00000000
  0.4444444444444444
  Ca+  Ca1  1  0.00000000  0.00000000  0.00000000
  0.1111111111111111
  Be+  Be2  1  0.00000000  0.00000000  0.00000000
  0.2222222222222222
  Ra+  Ra3  1  0.00000000  0.00000000  0.00000000
  0.2222222222222222
  Mg  Mg4  2  0.33333333  0.66666667  0.01510000  1
  H  H5  6  0.16310000  0.78540000  0.48110000  1
  O  O6  6  0.00680000  0.66930000  0.27460000  1
