# generated using pymatgen
data_In18Cu0.5Ag0.5Au40Rg1
_symmetry_space_group_name_H-M  'P -3'
_cell_length_a   12.21500000
_cell_length_b   12.21500000
_cell_length_c   8.50900000
_cell_angle_alpha   90.00000000
_cell_angle_beta   90.00000000
_cell_angle_gamma   120.00000000
_symmetry_Int_Tables_number   147
_chemical_formula_structural   In18Cu0.5Ag0.5Au40Rg1
_chemical_formula_sum   'In18 Cu0.5 Ag0.5 Au40 Rg1'
_cell_volume   1099.50218808
_cell_formula_units_Z   1
loop_
 _symmetry_equiv_pos_site_id
 _symmetry_equiv_pos_as_xyz
  1  'x, y, z'
  2  '-x, -y, -z'
  3  '-y, x-y, z'
  4  'y, -x+y, -z'
  5  '-x+y, -x, z'
  6  'x-y, x, -z'
loop_
 _atom_site_type_symbol
 _atom_site_label
 _atom_site_symmetry_multiplicity
 _atom_site_fract_x
 _atom_site_fract_y
 _atom_site_fract_z
 _atom_site_occupancy
  In  In0  6  0.02200000  0.83600000  0.24600000  1.0
  In  In1  6  0.14000000  0.64200000  0.04400000  1.0
  In  In2  6  0.16700000  0.47300000  0.54300000  1.0
  Au  Au3  6  0.01300000  0.78000000  0.57500000  1.0
  Au  Au4  6  0.03700000  0.79300000  0.91700000  1.0
  Au  Au5  6  0.08700000  0.64200000  0.37100000  1.0
  Au  Au6  6  0.10800000  0.42200000  0.87400000  1.0
  Au  Au7  6  0.10800000  0.63700000  0.70600000  1.0
  Au  Au8  6  0.13900000  0.43500000  0.20600000  1.0
  Au  Au9  2  0.33333333  0.66666667  0.31200000  1.0
  Au  Au10  1  0.00000000  0.00000000  0.00000000  1.0
  Cu+  Cu11  2  0.33333333  0.66666667  0.82500000  0.25
  Ag+  Ag12  2  0.33333333  0.66666667  0.82500000  0.25
  Rg+  Rg13  2  0.33333333  0.66666667  0.82500000  0.25
  Au+  Au14  2  0.33333333  0.66666667  0.82500000  0.25
  Rg+  Rg15  1  0.00000000  0.00000000  0.50000000  0.5
  Au+  Au16  1  0.00000000  0.00000000  0.50000000  0.5
