# generated using pymatgen
data_CsRbSn2SbPMc3N
_symmetry_space_group_name_H-M  'P -3'
_cell_length_a   6.56000000
_cell_length_b   6.56000000
_cell_length_c   7.41300000
_cell_angle_alpha   90.00000000
_cell_angle_beta   90.00000000
_cell_angle_gamma   120.00000000
_symmetry_Int_Tables_number   147
_chemical_formula_structural   CsRbSn2SbPMc3N
_chemical_formula_sum   'Cs1 Rb1 Sn2 Sb1.0 P1.0 Mc3 N1.0'
_cell_volume   276.26909852
_cell_formula_units_Z   1
loop_
 _symmetry_equiv_pos_site_id
 _symmetry_equiv_pos_as_xyz
  1  'x, y, z'
  2  '-x, -y, -z'
  3  '-y, x-y, z'
  4  'y, -x+y, -z'
  5  '-x+y, -x, z'
  6  'x-y, x, -z'
loop_
 _atom_type_symbol
 _atom_type_oxidation_number
  Cs0+  0.0
  Rb0+  0.0
  Sn0+  0.0
  Sb0+  0.0
  P0+  0.0
  N0+  0.0
  Mc0+  0.0
loop_
 _atom_site_type_symbol
 _atom_site_label
 _atom_site_symmetry_multiplicity
 _atom_site_fract_x
 _atom_site_fract_y
 _atom_site_fract_z
 _atom_site_occupancy
  Cs0+  Cs0  2  0.33333333  0.66666667  0.90120000  0.5
  Rb0+  Rb1  2  0.33333333  0.66666667  0.90120000  0.5
  Sn0+  Sn2  2  0.33333333  0.66666667  0.38250000  1.0
  P0+  P3  6  0.10400000  0.73700000  0.21900000
  0.16666666666666666
  Sb0+  Sb4  6  0.10400000  0.73700000  0.21900000
  0.16666666666666666
  Mc0+  Mc5  6  0.10400000  0.73700000  0.21900000  0.5
  N0+  N6  6  0.10400000  0.73700000  0.21900000
  0.16666666666666666
