# generated using pymatgen
data_K2Na2La4H8FlSn3(SO7)4
_symmetry_space_group_name_H-M  'P 41'
_cell_length_a   7.00780000
_cell_length_b   7.00780000
_cell_length_c   11.83990000
_cell_angle_alpha   90.00000000
_cell_angle_beta   90.00000000
_cell_angle_gamma   90.00000000
_symmetry_Int_Tables_number   76
_chemical_formula_structural   K2Na2La4H8FlSn3(SO7)4
_chemical_formula_sum   'K2 Na2 La4 H8 Fl1 Sn3 S4 O28'
_cell_volume   581.44873742
_cell_formula_units_Z   1
loop_
 _symmetry_equiv_pos_site_id
 _symmetry_equiv_pos_as_xyz
  1  'x, y, z'
  2  '-y, x, z+1/4'
  3  '-x, -y, z+1/2'
  4  'y, -x, z+3/4'
loop_
 _atom_site_type_symbol
 _atom_site_label
 _atom_site_symmetry_multiplicity
 _atom_site_fract_x
 _atom_site_fract_y
 _atom_site_fract_z
 _atom_site_occupancy
  Na+  Na0  4  0.36240000  0.44600000  0.72880000  0.5
  K+  K1  4  0.36240000  0.44600000  0.72880000  0.5
  La  La2  4  0.10782000  0.64399000  0.90528700  1.0
  H  H3  4  0.02900000  0.15900000  0.87430000  1.0
  H  H4  4  0.18200000  0.40800000  0.68940000  1.0
  Fl+  Fl5  4  0.09170000  0.15200000  0.94240000  0.25
  Sn+  Sn6  4  0.09170000  0.15200000  0.94240000  0.75
  S  S7  4  0.24935000  0.61470000  0.21346000  1.0
  O  O8  4  0.00970000  0.14370000  0.22870000  1.0
  O  O9  4  0.12840000  0.54270000  0.30345000  1.0
  O  O10  4  0.13330000  0.67060000  0.11590000  1.0
  O  O11  4  0.13660000  0.30420000  0.99154000  1.0
  O  O12  4  0.21600000  0.35000000  0.50559000  1.0
  O  O13  4  0.24540000  0.43750000  0.74943000  1.0
  O  O14  4  0.38680000  0.46470000  0.18042000  1.0
