# generated using pymatgen
data_K21Ba1.66666667Ra1Ca0.33333333Lu6B45O90
_symmetry_space_group_name_H-M  'R 3 2 :H'
_cell_length_a   12.97050000
_cell_length_b   12.97050000
_cell_length_c   15.65100000
_cell_angle_alpha   90.00000000
_cell_angle_beta   90.00000000
_cell_angle_gamma   120.00000000
_symmetry_Int_Tables_number   155
_chemical_formula_structural
K21Ba1.66666667Ra1Ca0.33333333Lu6B45O90
_chemical_formula_sum
'K21 Ba1.66666667 Ra1 Ca0.33333333 Lu6 B45 O90'
_cell_volume   2280.26939953
_cell_formula_units_Z   1
loop_
 _symmetry_equiv_pos_site_id
 _symmetry_equiv_pos_as_xyz
  1  'x, y, z'
  2  '-y, x-y, z'
  3  '-x+y, -x, z'
  4  'y, x, -z'
  5  'x-y, -y, -z'
  6  '-x, -x+y, -z'
  7  'x+2/3, y+1/3, z+1/3'
  8  '-y+2/3, x-y+1/3, z+1/3'
  9  '-x+y+2/3, -x+1/3, z+1/3'
  10  'y+2/3, x+1/3, -z+1/3'
  11  'x-y+2/3, -y+1/3, -z+1/3'
  12  '-x+2/3, -x+y+1/3, -z+1/3'
  13  'x+1/3, y+2/3, z+2/3'
  14  '-y+1/3, x-y+2/3, z+2/3'
  15  '-x+y+1/3, -x+2/3, z+2/3'
  16  'y+1/3, x+2/3, -z+2/3'
  17  'x-y+1/3, -y+2/3, -z+2/3'
  18  '-x+1/3, -x+y+2/3, -z+2/3'
loop_
 _atom_site_type_symbol
 _atom_site_label
 _atom_site_symmetry_multiplicity
 _atom_site_fract_x
 _atom_site_fract_y
 _atom_site_fract_z
 _atom_site_occupancy
  K  K0  9  0.00000000  0.46256667  0.50003333  1.0
  K  K1  9  0.00000000  0.48790000  0.00000000  1.0
  K  K2  3  0.00000000  0.00000000  0.00000000  1.0
  Ra+  Ra3  3  0.00000000  0.00000000  0.50003333
  0.3333333333333333
  Ba+  Ba4  3  0.00000000  0.00000000  0.50003333
  0.5555555555555556
  Ca+  Ca5  3  0.00000000  0.00000000  0.50003333
  0.1111111111111111
  Lu  Lu6  6  0.00000000  0.00000000  0.26963000  1.0
  B  B7  18  0.07926667  0.54693333  0.28543333  1.0
  B  B8  18  0.09840000  0.86930000  0.13190000  1.0
  B  B9  9  0.00000000  0.74840000  0.00000000  1.0
  O  O10  18  0.00630000  0.81970000  0.07680000  1.0
  O  O11  18  0.01066667  0.48293333  0.21303333  1.0
  O  O12  18  0.03416667  0.59583333  0.34113333  1.0
  O  O13  18  0.04143333  0.14586667  0.63136667  1.0
  O  O14  18  0.06500000  0.16620000  0.19740000  1.0
