# generated using pymatgen
data_Mg54Hg10Cn2Zn5Cd
_symmetry_space_group_name_H-M  'R 3 2 :H'
_cell_length_a   8.35100000
_cell_length_b   8.35100000
_cell_length_c   25.84500000
_cell_angle_alpha   90.00000000
_cell_angle_beta   90.00000000
_cell_angle_gamma   120.00000000
_symmetry_Int_Tables_number   155
_chemical_formula_structural   Mg54Hg10Cn2Zn5Cd
_chemical_formula_sum   'Mg54 Hg10 Cn2 Zn5.0 Cd1'
_cell_volume   1560.93254479
_cell_formula_units_Z   1
loop_
 _symmetry_equiv_pos_site_id
 _symmetry_equiv_pos_as_xyz
  1  'x, y, z'
  2  '-y, x-y, z'
  3  '-x+y, -x, z'
  4  'y, x, -z'
  5  'x-y, -y, -z'
  6  '-x, -x+y, -z'
  7  'x+2/3, y+1/3, z+1/3'
  8  '-y+2/3, x-y+1/3, z+1/3'
  9  '-x+y+2/3, -x+1/3, z+1/3'
  10  'y+2/3, x+1/3, -z+1/3'
  11  'x-y+2/3, -y+1/3, -z+1/3'
  12  '-x+2/3, -x+y+1/3, -z+1/3'
  13  'x+1/3, y+2/3, z+2/3'
  14  '-y+1/3, x-y+2/3, z+2/3'
  15  '-x+y+1/3, -x+2/3, z+2/3'
  16  'y+1/3, x+2/3, -z+2/3'
  17  'x-y+1/3, -y+2/3, -z+2/3'
  18  '-x+1/3, -x+y+2/3, -z+2/3'
loop_
 _atom_site_type_symbol
 _atom_site_label
 _atom_site_symmetry_multiplicity
 _atom_site_fract_x
 _atom_site_fract_y
 _atom_site_fract_z
 _atom_site_occupancy
  Mg  Mg0  18  0.00000000  0.33300000  0.05500000  1.0
  Mg  Mg1  18  0.00000000  0.66700000  0.11100000  1.0
  Mg  Mg2  6  0.00000000  0.00000000  0.13900000  1.0
  Mg  Mg3  6  0.00000000  0.00000000  0.30500000  1.0
  Mg  Mg4  6  0.00000000  0.00000000  0.41700000  1.0
  Hg  Hg5  9  0.00000000  0.66700000  0.00000000  1.0
  Cn+  Cn6  9  0.00000000  0.33300000  0.50000000
  0.2222222222222222
  Zn+  Zn7  9  0.00000000  0.33300000  0.50000000
  0.5555555555555556
  Cd+  Cd8  9  0.00000000  0.33300000  0.50000000
  0.1111111111111111
  Hg+  Hg9  9  0.00000000  0.33300000  0.50000000
  0.1111111111111111
