# generated using pymatgen
data_Ni0.5Po0.5Te0.5Pd1.5Pt0.5Ds0.5Se0.5S0.5
_symmetry_space_group_name_H-M  'R 3 2 :R'
_cell_length_a   4.04900000
_cell_length_b   4.04900000
_cell_length_c   4.04900000
_cell_angle_alpha   90.30000000
_cell_angle_beta   90.30000000
_cell_angle_gamma   90.30000000
_symmetry_Int_Tables_number   155
_chemical_formula_structural
Ni0.5Po0.5Te0.5Pd1.5Pt0.5Ds0.5Se0.5S0.5
_chemical_formula_sum
'Ni0.5 Po0.5 Te0.5 Pd1.5 Pt0.5 Ds0.5 Se0.5 S0.5'
_cell_volume   66.37819028
_cell_formula_units_Z   1
loop_
 _symmetry_equiv_pos_site_id
 _symmetry_equiv_pos_as_xyz
  1  'x, y, z'
  2  'z, x, y'
  3  'y, z, x'
  4  '-z, -y, -x'
  5  '-y, -x, -z'
  6  '-x, -z, -y'
loop_
 _atom_type_symbol
 _atom_type_oxidation_number
  Ni+  1.0
  Po2-  -2.0
  Te2-  -2.0
  Pd+  1.0
  Pt+  1.0
  Se2-  -2.0
  S2-  -2.0
  Ds+  1.0
loop_
 _atom_site_type_symbol
 _atom_site_label
 _atom_site_symmetry_multiplicity
 _atom_site_fract_x
 _atom_site_fract_y
 _atom_site_fract_z
 _atom_site_occupancy
  Ni+  Ni0  3  0.25000000  0.75000000  0.50000000
  0.16666666666666666
  Pt+  Pt1  3  0.25000000  0.75000000  0.50000000
  0.16666666666666666
  Pd+  Pd2  3  0.25000000  0.75000000  0.50000000  0.5
  Ds+  Ds3  3  0.25000000  0.75000000  0.50000000
  0.16666666666666666
  Po2-  Po4  2  0.25000000  0.25000000  0.25000000  0.25
  S2-  S5  2  0.25000000  0.25000000  0.25000000  0.25
  Te2-  Te6  2  0.25000000  0.25000000  0.25000000  0.25
  Se2-  Se7  2  0.25000000  0.25000000  0.25000000  0.25
