# generated using pymatgen
data_Y0.5Sc0.5Br1.5F1Ts0.5
_symmetry_space_group_name_H-M  'R 3 2 :R'
_cell_length_a   4.02200000
_cell_length_b   4.02200000
_cell_length_c   4.02200000
_cell_angle_alpha   89.57500000
_cell_angle_beta   89.57500000
_cell_angle_gamma   89.57500000
_symmetry_Int_Tables_number   155
_chemical_formula_structural   Y0.5Sc0.5Br1.5F1Ts0.5
_chemical_formula_sum   'Y0.5 Sc0.5 Br1.5 F1 Ts0.5'
_cell_volume   65.05647538
_cell_formula_units_Z   1
loop_
 _symmetry_equiv_pos_site_id
 _symmetry_equiv_pos_as_xyz
  1  'x, y, z'
  2  'z, x, y'
  3  'y, z, x'
  4  '-z, -y, -x'
  5  '-y, -x, -z'
  6  '-x, -z, -y'
loop_
 _atom_type_symbol
 _atom_type_oxidation_number
  Y3+  3.0
  Sc3+  3.0
  Br+  1.0
  F+  1.0
  Ts+  1.0
loop_
 _atom_site_type_symbol
 _atom_site_label
 _atom_site_symmetry_multiplicity
 _atom_site_fract_x
 _atom_site_fract_y
 _atom_site_fract_z
 _atom_site_occupancy
  Sc3+  Sc0  1  0.00000000  0.00000000  0.00000000  0.5
  Y3+  Y1  1  0.00000000  0.00000000  0.00000000  0.5
  Br+  Br2  3  0.27500000  0.72500000  0.50000000  0.5
  F+  F3  3  0.27500000  0.72500000  0.50000000  0.3333333333333333
  Ts+  Ts4  3  0.27500000  0.72500000  0.50000000
  0.16666666666666666
