# generated using pymatgen
data_Rb45La2Tb2PmNd9Eu(BO2)90
_symmetry_space_group_name_H-M  'R 3 2 :H'
_cell_length_a   13.52363000
_cell_length_b   13.52363000
_cell_length_c   31.16170000
_cell_angle_alpha   90.00000000
_cell_angle_beta   90.00000000
_cell_angle_gamma   120.00000000
_symmetry_Int_Tables_number   155
_chemical_formula_structural   Rb45La2Tb2PmNd9Eu(BO2)90
_chemical_formula_sum   'Rb45 La2.0 Tb2.0 Pm1.0 Nd9 Eu1.0 B90 O180'
_cell_volume   4935.58157441
_cell_formula_units_Z   1
loop_
 _symmetry_equiv_pos_site_id
 _symmetry_equiv_pos_as_xyz
  1  'x, y, z'
  2  '-y, x-y, z'
  3  '-x+y, -x, z'
  4  'y, x, -z'
  5  'x-y, -y, -z'
  6  '-x, -x+y, -z'
  7  'x+2/3, y+1/3, z+1/3'
  8  '-y+2/3, x-y+1/3, z+1/3'
  9  '-x+y+2/3, -x+1/3, z+1/3'
  10  'y+2/3, x+1/3, -z+1/3'
  11  'x-y+2/3, -y+1/3, -z+1/3'
  12  '-x+2/3, -x+y+1/3, -z+1/3'
  13  'x+1/3, y+2/3, z+2/3'
  14  '-y+1/3, x-y+2/3, z+2/3'
  15  '-x+y+1/3, -x+2/3, z+2/3'
  16  'y+1/3, x+2/3, -z+2/3'
  17  'x-y+1/3, -y+2/3, -z+2/3'
  18  '-x+1/3, -x+y+2/3, -z+2/3'
loop_
 _atom_site_type_symbol
 _atom_site_label
 _atom_site_symmetry_multiplicity
 _atom_site_fract_x
 _atom_site_fract_y
 _atom_site_fract_z
 _atom_site_occupancy
  Rb  Rb0  18  0.00353333  0.48156667  0.24804667  1.0
  Rb  Rb1  9  0.00000000  0.45693333  0.49999997  1.0
  Rb  Rb2  9  0.00000000  0.46176667  0.00000000  1.0
  Rb  Rb3  6  0.00000000  0.00000000  0.24637667  1.0
  Rb  Rb4  3  0.00000000  0.00000000  0.49999997  1.0
  La+  La5  6  0.00000000  0.00000000  0.11740333
  0.3333333333333333
  Eu+  Eu6  6  0.00000000  0.00000000  0.11740333
  0.16666666666666666
  Pm+  Pm7  6  0.00000000  0.00000000  0.11740333
  0.16666666666666666
  Tb+  Tb8  6  0.00000000  0.00000000  0.11740333
  0.3333333333333333
  Nd  Nd9  6  0.00000000  0.00000000  0.38615667  1.0
  Nd  Nd10  3  0.00000000  0.00000000  0.00000000  1.0
  B  B11  18  0.00166667  0.74733333  0.75203333  1.0
  B  B12  18  0.07666667  0.55633333  0.61093333  1.0
  B  B13  18  0.07800000  0.55100000  0.10790000  1.0
  B  B14  18  0.09666667  0.87033333  0.68293333  1.0
  B  B15  18  0.10033333  0.86866667  0.18146667  1.0
  O  O16  18  0.00033333  0.81156667  0.20806667  1.0
  O  O17  18  0.00093333  0.47276667  0.14116667  1.0
  O  O18  18  0.00626667  0.81613333  0.71343333  1.0
  O  O19  18  0.00900000  0.49510000  0.64710000  1.0
  O  O20  18  0.03536667  0.60463333  0.08383333  1.0
  O  O21  18  0.03770000  0.59360000  0.57990000  1.0
  O  O22  18  0.05033333  0.15766667  0.43466667  1.0
  O  O23  18  0.05616667  0.14113333  0.94453333  1.0
  O  O24  18  0.06363333  0.17076667  0.14946667  1.0
  O  O25  18  0.06476667  0.16433333  0.65233333  1.0
