# generated using pymatgen
data_NiPd6PtDs(SeO2)2
_symmetry_space_group_name_H-M  'R 3 2 :H'
_cell_length_a   6.02900000
_cell_length_b   6.02900000
_cell_length_c   7.24900000
_cell_angle_alpha   90.00000000
_cell_angle_beta   90.00000000
_cell_angle_gamma   120.00000000
_symmetry_Int_Tables_number   155
_chemical_formula_structural   NiPd6PtDs(SeO2)2
_chemical_formula_sum   'Ni1 Pd6 Pt1 Ds1 Se2.0 O4.0'
_cell_volume   228.19141384
_cell_formula_units_Z   1
loop_
 _symmetry_equiv_pos_site_id
 _symmetry_equiv_pos_as_xyz
  1  'x, y, z'
  2  '-y, x-y, z'
  3  '-x+y, -x, z'
  4  'y, x, -z'
  5  'x-y, -y, -z'
  6  '-x, -x+y, -z'
  7  'x+2/3, y+1/3, z+1/3'
  8  '-y+2/3, x-y+1/3, z+1/3'
  9  '-x+y+2/3, -x+1/3, z+1/3'
  10  'y+2/3, x+1/3, -z+1/3'
  11  'x-y+2/3, -y+1/3, -z+1/3'
  12  '-x+2/3, -x+y+1/3, -z+1/3'
  13  'x+1/3, y+2/3, z+2/3'
  14  '-y+1/3, x-y+2/3, z+2/3'
  15  '-x+y+1/3, -x+2/3, z+2/3'
  16  'y+1/3, x+2/3, -z+2/3'
  17  'x-y+1/3, -y+2/3, -z+2/3'
  18  '-x+1/3, -x+y+2/3, -z+2/3'
loop_
 _atom_type_symbol
 _atom_type_oxidation_number
  Ni+  1.0
  Pd+  1.0
  Pt+  1.0
  Se+  1.0
  O+  1.0
  Ds+  1.0
loop_
 _atom_site_type_symbol
 _atom_site_label
 _atom_site_symmetry_multiplicity
 _atom_site_fract_x
 _atom_site_fract_y
 _atom_site_fract_z
 _atom_site_occupancy
  Pd+  Pd0  9  0.00000000  0.25000000  0.00000000
  0.6666666666666666
  Ni+  Ni1  9  0.00000000  0.25000000  0.00000000
  0.1111111111111111
  Pt+  Pt2  9  0.00000000  0.25000000  0.00000000
  0.1111111111111111
  Ds+  Ds3  9  0.00000000  0.25000000  0.00000000
  0.1111111111111111
  Se+  Se4  6  0.00000000  0.00000000  0.26000000
  0.3333333333333333
  O+  O5  6  0.00000000  0.00000000  0.26000000  0.6666666666666666
