# generated using pymatgen
data_K10Y2Co0.5Rh0.5Mt1.5Ir1.5N24O48
_symmetry_space_group_name_H-M  'P n -3 :1'
_cell_length_a   10.34000000
_cell_length_b   10.34000000
_cell_length_c   10.34000000
_cell_angle_alpha   90.00000000
_cell_angle_beta   90.00000000
_cell_angle_gamma   90.00000000
_symmetry_Int_Tables_number   201
_chemical_formula_structural   K10Y2Co0.5Rh0.5Mt1.5Ir1.5N24O48
_chemical_formula_sum   'K10 Y2 Co0.5 Rh0.5 Mt1.5 Ir1.5 N24 O48'
_cell_volume   1105.50730400
_cell_formula_units_Z   1
loop_
 _symmetry_equiv_pos_site_id
 _symmetry_equiv_pos_as_xyz
  1  'x, y, z'
  2  '-x, -y, z'
  3  'x, -y, -z'
  4  '-x, y, -z'
  5  'z, x, y'
  6  'z, -x, -y'
  7  '-z, x, -y'
  8  '-z, -x, y'
  9  'y, z, x'
  10  '-y, z, -x'
  11  '-y, -z, x'
  12  'y, -z, -x'
  13  '-x+1/2, -y+1/2, -z+1/2'
  14  'x+1/2, y+1/2, -z+1/2'
  15  '-x+1/2, y+1/2, z+1/2'
  16  'x+1/2, -y+1/2, z+1/2'
  17  '-z+1/2, -x+1/2, -y+1/2'
  18  '-z+1/2, x+1/2, y+1/2'
  19  'z+1/2, -x+1/2, y+1/2'
  20  'z+1/2, x+1/2, -y+1/2'
  21  '-y+1/2, -z+1/2, -x+1/2'
  22  'y+1/2, -z+1/2, x+1/2'
  23  'y+1/2, z+1/2, -x+1/2'
  24  '-y+1/2, z+1/2, x+1/2'
loop_
 _atom_type_symbol
 _atom_type_oxidation_number
  K0+  0.0
  Y0+  0.0
  Co0+  0.0
  Ir0+  0.0
  Rh0+  0.0
  N0+  0.0
  O0+  0.0
  Mt0+  0.0
loop_
 _atom_site_type_symbol
 _atom_site_label
 _atom_site_symmetry_multiplicity
 _atom_site_fract_x
 _atom_site_fract_y
 _atom_site_fract_z
 _atom_site_occupancy
  K0+  K0  6  0.00000000  0.00000000  0.50000000  1.0
  K0+  K1  4  0.25000000  0.25000000  0.75000000  1.0
  Y0+  Y2  2  0.00000000  0.00000000  0.00000000  1.0
  Rh0+  Rh3  4  0.25000000  0.25000000  0.25000000  0.125
  Co0+  Co4  4  0.25000000  0.25000000  0.25000000  0.125
  Mt0+  Mt5  4  0.25000000  0.25000000  0.25000000  0.375
  Ir0+  Ir6  4  0.25000000  0.25000000  0.25000000  0.375
  N0+  N7  24  0.04600000  0.25000000  0.25000000  1.0
  O0+  O8  24  0.00500000  0.14800000  0.75000000  1.0
  O0+  O9  24  0.00500000  0.35200000  0.75000000  1.0
