# generated using pymatgen
data_Zn0.33333333Cd0.16666667Hg0.33333333Cn0.16666667As2O6
_symmetry_space_group_name_H-M  'P -3 1 m'
_cell_length_a   4.82690000
_cell_length_b   4.82690000
_cell_length_c   4.86600000
_cell_angle_alpha   90.00000000
_cell_angle_beta   90.00000000
_cell_angle_gamma   120.00000000
_symmetry_Int_Tables_number   162
_chemical_formula_structural
Zn0.33333333Cd0.16666667Hg0.33333333Cn0.16666667As2O6
_chemical_formula_sum
'Zn0.33333333 Cd0.16666667 Hg0.33333333 Cn0.16666667 As2 O6'
_cell_volume   98.18368760
_cell_formula_units_Z   1
loop_
 _symmetry_equiv_pos_site_id
 _symmetry_equiv_pos_as_xyz
  1  'x, y, z'
  2  '-x, -y, -z'
  3  '-y, x-y, z'
  4  'y, -x+y, -z'
  5  '-x+y, -x, z'
  6  'x-y, x, -z'
  7  '-y, -x, -z'
  8  'y, x, z'
  9  '-x+y, y, -z'
  10  'x-y, -y, z'
  11  'x, x-y, -z'
  12  '-x, -x+y, z'
loop_
 _atom_site_type_symbol
 _atom_site_label
 _atom_site_symmetry_multiplicity
 _atom_site_fract_x
 _atom_site_fract_y
 _atom_site_fract_z
 _atom_site_occupancy
  Hg+  Hg0  1  0.00000000  0.00000000  0.00000000
  0.3333333333333333
  Cd+  Cd1  1  0.00000000  0.00000000  0.00000000
  0.16666666666666666
  Zn+  Zn2  1  0.00000000  0.00000000  0.00000000
  0.3333333333333333
  Cn+  Cn3  1  0.00000000  0.00000000  0.00000000
  0.16666666666666666
  As  As4  2  0.33333333  0.66666667  0.50000000  1
  O  O5  6  0.00000000  0.37570000  0.70870000  1
