# generated using pymatgen
data_Tl1Cd1Bi0.33333333As1.66666667P0.66666667N0.33333333O6
_symmetry_space_group_name_H-M  'P m -3'
_cell_length_a   5.34000000
_cell_length_b   5.34000000
_cell_length_c   5.34000000
_cell_angle_alpha   90.00000000
_cell_angle_beta   90.00000000
_cell_angle_gamma   90.00000000
_symmetry_Int_Tables_number   200
_chemical_formula_structural
Tl1Cd1Bi0.33333333As1.66666667P0.66666667N0.33333333O6
_chemical_formula_sum
'Tl1 Cd1 Bi0.33333333 As1.66666667 P0.66666667 N0.33333333 O6'
_cell_volume   152.27330400
_cell_formula_units_Z   1
loop_
 _symmetry_equiv_pos_site_id
 _symmetry_equiv_pos_as_xyz
  1  'x, y, z'
  2  '-x, -y, -z'
  3  '-x, -y, z'
  4  'x, y, -z'
  5  'x, -y, -z'
  6  '-x, y, z'
  7  '-x, y, -z'
  8  'x, -y, z'
  9  'z, x, y'
  10  '-z, -x, -y'
  11  'z, -x, -y'
  12  '-z, x, y'
  13  '-z, x, -y'
  14  'z, -x, y'
  15  '-z, -x, y'
  16  'z, x, -y'
  17  'y, z, x'
  18  '-y, -z, -x'
  19  '-y, z, -x'
  20  'y, -z, x'
  21  '-y, -z, x'
  22  'y, z, -x'
  23  'y, -z, -x'
  24  '-y, z, x'
loop_
 _atom_type_symbol
 _atom_type_oxidation_number
  Tl+  1.0
  Cd2+  2.0
  Bi3+  3.0
  As3+  3.0
  P3+  3.0
  N3+  3.0
  O2-  -2.0
loop_
 _atom_site_type_symbol
 _atom_site_label
 _atom_site_symmetry_multiplicity
 _atom_site_fract_x
 _atom_site_fract_y
 _atom_site_fract_z
 _atom_site_occupancy
  Tl+  Tl0  1  0.00000000  0.00000000  0.00000000  1.0
  Cd2+  Cd1  1  0.50000000  0.50000000  0.50000000  1.0
  N3+  N2  3  0.00000000  0.50000000  0.50000000  0.1111111111111111
  As3+  As3  3  0.00000000  0.50000000  0.50000000
  0.5555555555555556
  P3+  P4  3  0.00000000  0.50000000  0.50000000  0.2222222222222222
  Bi3+  Bi5  3  0.00000000  0.50000000  0.50000000
  0.1111111111111111
  O2-  O6  6  0.00000000  0.24000000  0.50000000  1.0
