# generated using pymatgen
data_Mn2.5Tc1Re1Bh1.5P3
_symmetry_space_group_name_H-M  'P 3 2 1'
_cell_length_a   6.08200000
_cell_length_b   6.08200000
_cell_length_c   3.45700000
_cell_angle_alpha   90.00000000
_cell_angle_beta   90.00000000
_cell_angle_gamma   120.00000000
_symmetry_Int_Tables_number   150
_chemical_formula_structural   Mn2.5Tc1Re1Bh1.5P3
_chemical_formula_sum   'Mn2.5 Tc1 Re1 Bh1.5 P3'
_cell_volume   110.74467242
_cell_formula_units_Z   1
loop_
 _symmetry_equiv_pos_site_id
 _symmetry_equiv_pos_as_xyz
  1  'x, y, z'
  2  '-y, x-y, z'
  3  '-x+y, -x, z'
  4  'y, x, -z'
  5  'x-y, -y, -z'
  6  '-x, -x+y, -z'
loop_
 _atom_site_type_symbol
 _atom_site_label
 _atom_site_symmetry_multiplicity
 _atom_site_fract_x
 _atom_site_fract_y
 _atom_site_fract_z
 _atom_site_occupancy
  Tc+  Tc0  3  0.00000000  0.74000000  0.00000000
  0.3333333333333333
  Re+  Re1  3  0.00000000  0.74000000  0.00000000
  0.3333333333333333
  Mn+  Mn2  3  0.00000000  0.74000000  0.00000000
  0.3333333333333333
  Bh+  Bh3  3  0.00000000  0.40000000  0.50000000  0.5
  Mn+  Mn4  3  0.00000000  0.40000000  0.50000000  0.5
  P  P5  2  0.33333333  0.66666667  0.12500000  1.0
  P  P6  1  0.00000000  0.00000000  0.50000000  1.0
