# generated using pymatgen
data_Na3Ca1.66666667Mg1.33333333Al3F18
_symmetry_space_group_name_H-M  'P 3 2 1'
_cell_length_a   8.92950000
_cell_length_b   8.92950000
_cell_length_c   5.06420000
_cell_angle_alpha   90.00000000
_cell_angle_beta   90.00000000
_cell_angle_gamma   120.00000000
_symmetry_Int_Tables_number   150
_chemical_formula_structural   Na3Ca1.66666667Mg1.33333333Al3F18
_chemical_formula_sum   'Na3 Ca1.66666667 Mg1.33333333 Al3 F18'
_cell_volume   349.70010589
_cell_formula_units_Z   1
loop_
 _symmetry_equiv_pos_site_id
 _symmetry_equiv_pos_as_xyz
  1  'x, y, z'
  2  '-y, x-y, z'
  3  '-x+y, -x, z'
  4  'y, x, -z'
  5  'x-y, -y, -z'
  6  '-x, -x+y, -z'
loop_
 _atom_type_symbol
 _atom_type_oxidation_number
  Na+  1.0
  Ca2+  2.0
  Mg2+  2.0
  Al3+  3.0
  F-  -1.0
loop_
 _atom_site_type_symbol
 _atom_site_label
 _atom_site_symmetry_multiplicity
 _atom_site_fract_x
 _atom_site_fract_y
 _atom_site_fract_z
 _atom_site_occupancy
  Na+  Na0  3  0.00000000  0.71450000  0.50000000  1.0
  Ca2+  Ca1  3  0.00000000  0.37200000  0.00000000
  0.5555555555555556
  Mg2+  Mg2  3  0.00000000  0.37200000  0.00000000
  0.4444444444444444
  Al3+  Al3  2  0.33333333  0.66666667  0.49900000  1.0
  Al3+  Al4  1  0.00000000  0.00000000  0.00000000  1.0
  F-  F5  6  0.08640000  0.19050000  0.20400000  1.0
  F-  F6  6  0.14400000  0.58990000  0.29700000  1.0
  F-  F7  6  0.22290000  0.47460000  0.70300000  1.0
