# generated using pymatgen
data_La3Al1.66666667Ga3.33333333C0.33333333Fl0.33333333Si0.33333333O14
_symmetry_space_group_name_H-M  'P 3 2 1'
_cell_length_a   8.25100000
_cell_length_b   8.25100000
_cell_length_c   5.14560000
_cell_angle_alpha   90.00000000
_cell_angle_beta   90.00000000
_cell_angle_gamma   120.00000000
_symmetry_Int_Tables_number   150
_chemical_formula_structural
La3Al1.66666667Ga3.33333333C0.33333333Fl0.33333333Si0.33333333O14
_chemical_formula_sum
;
La3 Al1.66666667 Ga3.33333333 C0.33333333 Fl0.33333333 Si0.33333333
O14
;
_cell_volume   303.37502747
_cell_formula_units_Z   1
loop_
 _symmetry_equiv_pos_site_id
 _symmetry_equiv_pos_as_xyz
  1  'x, y, z'
  2  '-y, x-y, z'
  3  '-x+y, -x, z'
  4  'y, x, -z'
  5  'x-y, -y, -z'
  6  '-x, -x+y, -z'
loop_
 _atom_type_symbol
 _atom_type_oxidation_number
  La0+  0.0
  Al0+  0.0
  Ga0+  0.0
  Si0+  0.0
  C0+  0.0
  O0+  0.0
  Fl0+  0.0
loop_
 _atom_site_type_symbol
 _atom_site_label
 _atom_site_symmetry_multiplicity
 _atom_site_fract_x
 _atom_site_fract_y
 _atom_site_fract_z
 _atom_site_occupancy
  La0+  La0  3  0.00000000  0.57163000  0.00000000  1.0
  Al0+  Al1  3  0.00000000  0.24340000  0.50000000
  0.5555555555555556
  Ga0+  Ga2  3  0.00000000  0.24340000  0.50000000
  0.4444444444444444
  Ga0+  Ga3  2  0.33333333  0.66666667  0.53130000  1.0
  C0+  C4  1  0.00000000  0.00000000  0.00000000  0.3333333333333333
  Fl0+  Fl5  1  0.00000000  0.00000000  0.00000000
  0.3333333333333333
  Si0+  Si6  1  0.00000000  0.00000000  0.00000000
  0.3333333333333333
  O0+  O7  6  0.08370000  0.85680000  0.24200000  1.0
  O0+  O8  6  0.15110000  0.45940000  0.69600000  1.0
  O0+  O9  2  0.33333333  0.66666667  0.18500000  1.0
