# generated using pymatgen
data_CsNa2CoTe2IrRhLvSe2O
_symmetry_space_group_name_H-M  'R -3 m :H'
_cell_length_a   2.81500000
_cell_length_b   2.81500000
_cell_length_c   14.05160000
_cell_angle_alpha   90.00000000
_cell_angle_beta   90.00000000
_cell_angle_gamma   120.00000000
_symmetry_Int_Tables_number   166
_chemical_formula_structural   CsNa2CoTe2IrRhLvSe2O
_chemical_formula_sum   'Cs1 Na2 Co1 Te2.0 Ir1 Rh1 Lv1.0 Se2.0 O1.0'
_cell_volume   96.43023131
_cell_formula_units_Z   1
loop_
 _symmetry_equiv_pos_site_id
 _symmetry_equiv_pos_as_xyz
  1  'x, y, z'
  2  '-x, -y, -z'
  3  '-y, x-y, z'
  4  'y, -x+y, -z'
  5  '-x+y, -x, z'
  6  'x-y, x, -z'
  7  'y, x, -z'
  8  '-y, -x, z'
  9  'x-y, -y, -z'
  10  '-x+y, y, z'
  11  '-x, -x+y, -z'
  12  'x, x-y, z'
  13  'x+2/3, y+1/3, z+1/3'
  14  '-x+2/3, -y+1/3, -z+1/3'
  15  '-y+2/3, x-y+1/3, z+1/3'
  16  'y+2/3, -x+y+1/3, -z+1/3'
  17  '-x+y+2/3, -x+1/3, z+1/3'
  18  'x-y+2/3, x+1/3, -z+1/3'
  19  'y+2/3, x+1/3, -z+1/3'
  20  '-y+2/3, -x+1/3, z+1/3'
  21  'x-y+2/3, -y+1/3, -z+1/3'
  22  '-x+y+2/3, y+1/3, z+1/3'
  23  '-x+2/3, -x+y+1/3, -z+1/3'
  24  'x+2/3, x-y+1/3, z+1/3'
  25  'x+1/3, y+2/3, z+2/3'
  26  '-x+1/3, -y+2/3, -z+2/3'
  27  '-y+1/3, x-y+2/3, z+2/3'
  28  'y+1/3, -x+y+2/3, -z+2/3'
  29  '-x+y+1/3, -x+2/3, z+2/3'
  30  'x-y+1/3, x+2/3, -z+2/3'
  31  'y+1/3, x+2/3, -z+2/3'
  32  '-y+1/3, -x+2/3, z+2/3'
  33  'x-y+1/3, -y+2/3, -z+2/3'
  34  '-x+y+1/3, y+2/3, z+2/3'
  35  '-x+1/3, -x+y+2/3, -z+2/3'
  36  'x+1/3, x-y+2/3, z+2/3'
loop_
 _atom_type_symbol
 _atom_type_oxidation_number
  Cs+  1.0
  Na+  1.0
  Co+  1.0
  Te+  1.0
  Ir+  1.0
  Rh+  1.0
  Se+  1.0
  O+  1.0
  Lv+  1.0
loop_
 _atom_site_type_symbol
 _atom_site_label
 _atom_site_symmetry_multiplicity
 _atom_site_fract_x
 _atom_site_fract_y
 _atom_site_fract_z
 _atom_site_occupancy
  Na+  Na0  3  0.00000000  0.00000000  0.00000000
  0.6666666666666666
  Cs+  Cs1  3  0.00000000  0.00000000  0.00000000
  0.3333333333333333
  Rh+  Rh2  3  0.00000000  0.00000000  0.50000000
  0.3333333333333333
  Ir+  Ir3  3  0.00000000  0.00000000  0.50000000
  0.3333333333333333
  Co+  Co4  3  0.00000000  0.00000000  0.50000000
  0.3333333333333333
  Lv+  Lv5  6  0.00000000  0.00000000  0.23970000
  0.16666666666666666
  Se+  Se6  6  0.00000000  0.00000000  0.23970000
  0.3333333333333333
  Te+  Te7  6  0.00000000  0.00000000  0.23970000
  0.3333333333333333
  O+  O8  6  0.00000000  0.00000000  0.23970000  0.16666666666666666
