# generated using pymatgen
data_FrRbBa2SrMg3BiSbAsH
_symmetry_space_group_name_H-M  'R -3 m :H'
_cell_length_a   4.02600000
_cell_length_b   4.02600000
_cell_length_c   20.49300000
_cell_angle_alpha   90.00000000
_cell_angle_beta   90.00000000
_cell_angle_gamma   120.00000000
_symmetry_Int_Tables_number   166
_chemical_formula_structural   FrRbBa2SrMg3BiSbAsH
_chemical_formula_sum   'Fr1 Rb1 Ba2.0 Sr1.0 Mg3 Bi1 Sb1 As1 H1'
_cell_volume   287.66280627
_cell_formula_units_Z   1
loop_
 _symmetry_equiv_pos_site_id
 _symmetry_equiv_pos_as_xyz
  1  'x, y, z'
  2  '-x, -y, -z'
  3  '-y, x-y, z'
  4  'y, -x+y, -z'
  5  '-x+y, -x, z'
  6  'x-y, x, -z'
  7  'y, x, -z'
  8  '-y, -x, z'
  9  'x-y, -y, -z'
  10  '-x+y, y, z'
  11  '-x, -x+y, -z'
  12  'x, x-y, z'
  13  'x+1/3, y+2/3, z+2/3'
  14  '-x+1/3, -y+2/3, -z+2/3'
  15  '-y+1/3, x-y+2/3, z+2/3'
  16  'y+1/3, -x+y+2/3, -z+2/3'
  17  '-x+y+1/3, -x+2/3, z+2/3'
  18  'x-y+1/3, x+2/3, -z+2/3'
  19  'y+1/3, x+2/3, -z+2/3'
  20  '-y+1/3, -x+2/3, z+2/3'
  21  'x-y+1/3, -y+2/3, -z+2/3'
  22  '-x+y+1/3, y+2/3, z+2/3'
  23  '-x+1/3, -x+y+2/3, -z+2/3'
  24  'x+1/3, x-y+2/3, z+2/3'
  25  'x+2/3, y+1/3, z+1/3'
  26  '-x+2/3, -y+1/3, -z+1/3'
  27  '-y+2/3, x-y+1/3, z+1/3'
  28  'y+2/3, -x+y+1/3, -z+1/3'
  29  '-x+y+2/3, -x+1/3, z+1/3'
  30  'x-y+2/3, x+1/3, -z+1/3'
  31  'y+2/3, x+1/3, -z+1/3'
  32  '-y+2/3, -x+1/3, z+1/3'
  33  'x-y+2/3, -y+1/3, -z+1/3'
  34  '-x+y+2/3, y+1/3, z+1/3'
  35  '-x+2/3, -x+y+1/3, -z+1/3'
  36  'x+2/3, x-y+1/3, z+1/3'
loop_
 _atom_type_symbol
 _atom_type_oxidation_number
  Fr+  1.0
  Rb+  1.0
  Ba+  1.0
  Sr+  1.0
  Mg+  1.0
  Bi+  1.0
  Sb+  1.0
  As+  1.0
  H+  1.0
loop_
 _atom_site_type_symbol
 _atom_site_label
 _atom_site_symmetry_multiplicity
 _atom_site_fract_x
 _atom_site_fract_y
 _atom_site_fract_z
 _atom_site_occupancy
  Mg+  Mg0  6  0.00000000  0.00000000  0.24004000  0.5
  Sr+  Sr1  6  0.00000000  0.00000000  0.24004000
  0.16666666666666666
  Ba+  Ba2  6  0.00000000  0.00000000  0.24004000
  0.3333333333333333
  Rb+  Rb3  3  0.00000000  0.00000000  0.00000000
  0.3333333333333333
  H+  H4  3  0.00000000  0.00000000  0.00000000  0.3333333333333333
  Fr+  Fr5  3  0.00000000  0.00000000  0.00000000
  0.3333333333333333
  Sb+  Sb6  3  0.00000000  0.00000000  0.50000000
  0.3333333333333333
  Bi+  Bi7  3  0.00000000  0.00000000  0.50000000
  0.3333333333333333
  As+  As8  3  0.00000000  0.00000000  0.50000000
  0.3333333333333333
