# generated using pymatgen
data_Sb0.5As2P1H8C8N0.5O4F12
_symmetry_space_group_name_H-M  'P 21 21 21'
_cell_length_a   4.54700000
_cell_length_b   5.94700000
_cell_length_c   14.73100000
_cell_angle_alpha   90.00000000
_cell_angle_beta   90.00000000
_cell_angle_gamma   90.00000000
_symmetry_Int_Tables_number   19
_chemical_formula_structural   Sb0.5As2P1H8C8N0.5O4F12
_chemical_formula_sum   'Sb0.5 As2 P1 H8 C8 N0.5 O4 F12'
_cell_volume   398.34110358
_cell_formula_units_Z   1
loop_
 _symmetry_equiv_pos_site_id
 _symmetry_equiv_pos_as_xyz
  1  'x, y, z'
  2  '-x+1/2, -y, z+1/2'
  3  'x+1/2, -y+1/2, -z'
  4  '-x, y+1/2, -z+1/2'
loop_
 _atom_site_type_symbol
 _atom_site_label
 _atom_site_symmetry_multiplicity
 _atom_site_fract_x
 _atom_site_fract_y
 _atom_site_fract_z
 _atom_site_occupancy
  H  H0  4  0.05000000  0.62000000  0.89000000  1.0
  H  H1  4  0.20000000  0.84000000  0.54000000  1.0
  As+  As2  4  0.15920000  0.12140000  0.61170000  0.5
  N+  N3  4  0.15920000  0.12140000  0.61170000  0.125
  Sb+  Sb4  4  0.15920000  0.12140000  0.61170000  0.125
  P+  P5  4  0.15920000  0.12140000  0.61170000  0.25
  C  C6  4  0.17400000  0.03680000  0.06910000  1.0
  C  C7  4  0.21800000  0.69740000  0.15920000  1.0
  O  O8  4  0.09420000  0.53660000  0.43210000  1.0
  F  F9  4  0.03940000  0.57250000  0.10840000  1.0
  F  F10  4  0.05650000  0.76110000  0.23010000  1.0
  F  F11  4  0.06890000  0.43430000  0.68910000  1.0
