# generated using pymatgen
data_Fr3K0.5Rb3.5Na0.5Li0.5Fe4H40C8N8Cl20O4
_symmetry_space_group_name_H-M  'P 21 21 21'
_cell_length_a   14.53100000
_cell_length_b   10.77200000
_cell_length_c   6.88800000
_cell_angle_alpha   90.00000000
_cell_angle_beta   90.00000000
_cell_angle_gamma   90.00000000
_symmetry_Int_Tables_number   19
_chemical_formula_structural   Fr3K0.5Rb3.5Na0.5Li0.5Fe4H40C8N8Cl20O4
_chemical_formula_sum
'Fr3 K0.5 Rb3.5 Na0.5 Li0.5 Fe4 H40 C8 N8 Cl20 O4'
_cell_volume   1078.16439562
_cell_formula_units_Z   1
loop_
 _symmetry_equiv_pos_site_id
 _symmetry_equiv_pos_as_xyz
  1  'x, y, z'
  2  'x+1/2, -y+1/2, -z'
  3  '-x+1/2, -y, z+1/2'
  4  '-x, y+1/2, -z+1/2'
loop_
 _atom_type_symbol
 _atom_type_oxidation_number
  Fr0+  0.0
  K0+  0.0
  Rb0+  0.0
  Na0+  0.0
  Li0+  0.0
  Fe0+  0.0
  H0+  0.0
  C0+  0.0
  N0+  0.0
  Cl0+  0.0
  O0+  0.0
loop_
 _atom_site_type_symbol
 _atom_site_label
 _atom_site_symmetry_multiplicity
 _atom_site_fract_x
 _atom_site_fract_y
 _atom_site_fract_z
 _atom_site_occupancy
  Fr0+  Fr0  4  0.08787000  0.33750000  0.07747000  0.75
  Na0+  Na1  4  0.08787000  0.33750000  0.07747000  0.125
  Li0+  Li2  4  0.08787000  0.33750000  0.07747000  0.125
  K0+  K3  4  0.15197000  0.10990000  0.94241000  0.125
  Rb0+  Rb4  4  0.15197000  0.10990000  0.94241000  0.875
  Fe0+  Fe5  4  0.12909000  0.72912000  0.98547000  1.0
  H0+  H6  4  0.04907000  0.13765000  0.98381000  1.0
  H0+  H7  4  0.05115000  0.31227000  0.75293000  1.0
  H0+  H8  4  0.08241000  0.16488000  0.30803000  1.0
  H0+  H9  4  0.11254000  0.03291000  0.24501000  1.0
  H0+  H10  4  0.12433000  0.41610000  0.77198000  1.0
  H0+  H11  4  0.13513000  0.69646000  0.38874000  1.0
  H0+  H12  4  0.15355000  0.28427000  0.70671000  1.0
  H0+  H13  4  0.15858000  0.58088000  0.29317000  1.0
  H0+  H14  4  0.18531000  0.13713000  0.26664000  1.0
  H0+  H15  4  0.19027000  0.30950000  0.03124000  1.0
  C0+  C16  4  0.11110000  0.15680000  0.02190000  1.0
  C0+  C17  4  0.12840000  0.29100000  0.99420000  1.0
  N0+  N18  4  0.11330000  0.32990000  0.79060000  1.0
  N0+  N19  4  0.12430000  0.12040000  0.22630000  1.0
  Cl0+  Cl20  4  0.01220000  0.86507000  0.09980000  1.0
  Cl0+  Cl21  4  0.01501000  0.58550000  0.90400000  1.0
  Cl0+  Cl22  4  0.13367000  0.81359000  0.67432000  1.0
  Cl0+  Cl23  4  0.24118000  0.86944000  0.10590000  1.0
  Cl0+  Cl24  4  0.24718000  0.58161000  0.92540000  1.0
  O0+  O25  4  0.12200000  0.65060000  0.27680000  1.0
