# generated using pymatgen
data_K4BiAsH52C56(N11O2)2
_symmetry_space_group_name_H-M  'C 1 c 1'
_cell_length_a   13.29540000
_cell_length_b   12.45290000
_cell_length_c   8.54450000
_cell_angle_alpha   90.00000000
_cell_angle_beta   97.91700000
_cell_angle_gamma   90.00000000
_symmetry_Int_Tables_number   9
_chemical_formula_structural   K4BiAsH52C56(N11O2)2
_chemical_formula_sum   'K4 Bi1 As1 H52 C56 N22 O4'
_cell_volume   1401.19729979
_cell_formula_units_Z   1
loop_
 _symmetry_equiv_pos_site_id
 _symmetry_equiv_pos_as_xyz
  1  'x, y, z'
  2  'x, -y, z+1/2'
  3  'x+1/2, y+1/2, z'
  4  'x+1/2, -y+1/2, z+1/2'
loop_
 _atom_site_type_symbol
 _atom_site_label
 _atom_site_symmetry_multiplicity
 _atom_site_fract_x
 _atom_site_fract_y
 _atom_site_fract_z
 _atom_site_occupancy
  H+  H0  4  0.39010000  0.24380000  0.09200000  0.25
  K+  K1  4  0.39010000  0.24380000  0.09200000  0.75
  K+  K2  4  0.26310000  0.38130000  0.19550000  0.25
  H+  H3  4  0.26310000  0.38130000  0.19550000  0.75
  H  H4  4  0.03690000  0.43210000  0.81620000  1.0
  H  H5  4  0.07420000  0.24520000  0.56460000  1.0
  H  H6  4  0.08300000  0.21170000  0.27830000  1.0
  H  H7  4  0.12430000  0.00530000  0.88040000  1.0
  H  H8  4  0.16740000  0.19960000  0.87400000  1.0
  H  H9  4  0.21990000  0.43400000  0.02870000  1.0
  H  H10  4  0.24070000  0.34670000  0.61370000  1.0
  H  H11  4  0.26080000  0.07960000  0.22300000  1.0
  H  H12  4  0.27790000  0.39850000  0.45980000  1.0
  H  H13  4  0.34910000  0.04010000  0.93330000  1.0
  H  H14  4  0.42050000  0.08110000  0.65520000  1.0
  H  H15  4  0.46200000  0.49270000  0.99710000  1.0
  C  C16  4  0.01878000  0.23803000  0.48230000  1.0
  C  C17  4  0.02325000  0.21979000  0.32680000  1.0
  C  C18  4  0.08627000  0.06300000  0.91540000  1.0
  C  C19  4  0.08976000  0.46523000  0.76920000  1.0
  C  C20  4  0.10927000  0.17128000  0.91270000  1.0
  C  C21  4  0.15544000  0.49359000  0.21080000  1.0
  C  C22  4  0.24134000  0.44964000  0.14200000  1.0
  C  C23  4  0.29453000  0.10386000  0.32200000  1.0
  C  C24  4  0.29885000  0.38118000  0.57260000  1.0
  C  C25  4  0.34349000  0.03588000  0.43770000  1.0
  C  C26  4  0.38148000  0.10200000  0.55840000  1.0
  C  C27  4  0.38819000  0.30388000  0.58800000  1.0
  C  C28  4  0.41601000  0.25608000  0.99530000  1.0
  C  C29  4  0.49796000  0.44370000  0.47840000  1.0
  Bi+  Bi30  4  0.35828000  0.26956000  0.85794000  0.25
  N+  N31  4  0.35828000  0.26956000  0.85794000  0.5
  As+  As32  4  0.35828000  0.26956000  0.85794000  0.25
  N  N33  4  0.04083000  0.23028000  0.97023000  1.0
  N  N34  4  0.30027000  0.20620000  0.36540000  1.0
  N  N35  4  0.35309000  0.20290000  0.51451000  1.0
  N  N36  4  0.42624000  0.28462000  0.75393000  1.0
  N  N37  4  0.47176000  0.34231000  0.50893000  1.0
  O  O38  4  0.32534000  0.47671000  0.65767000  1.0
