# generated using pymatgen
data_CsKLiSn4Ge2H85Pb9C29(I5N2)8
_symmetry_space_group_name_H-M  'C 1 c 1'
_cell_length_a   45.09100000
_cell_length_b   9.04940000
_cell_length_c   8.86540000
_cell_angle_alpha   90.00000000
_cell_angle_beta   95.92000000
_cell_angle_gamma   90.00000000
_symmetry_Int_Tables_number   9
_chemical_formula_structural   CsKLiSn4Ge2H85Pb9C29(I5N2)8
_chemical_formula_sum   'Cs1 K1 Li1 Sn4 Ge2 H85 Pb9 C29 I40 N16'
_cell_volume   3598.20284572
_cell_formula_units_Z   1
loop_
 _symmetry_equiv_pos_site_id
 _symmetry_equiv_pos_as_xyz
  1  'x, y, z'
  2  'x, -y, z+1/2'
  3  'x+1/2, y+1/2, z'
  4  'x+1/2, -y+1/2, z+1/2'
loop_
 _atom_site_type_symbol
 _atom_site_label
 _atom_site_symmetry_multiplicity
 _atom_site_fract_x
 _atom_site_fract_y
 _atom_site_fract_z
 _atom_site_occupancy
  K+  K0  4  0.38364200  0.03167100  0.08928000  0.25
  H+  H1  4  0.38364200  0.03167100  0.08928000  0.25
  Li+  Li2  4  0.38364200  0.03167100  0.08928000  0.25
  Cs+  Cs3  4  0.38364200  0.03167100  0.08928000  0.25
  Sn+  Sn4  4  0.37510000  0.36600000  0.88400000  0.75
  Ge+  Ge5  4  0.37510000  0.36600000  0.88400000  0.25
  H  H6  4  0.02712700  0.26178300  0.45636900  1.0
  H  H7  4  0.02740100  0.21003400  0.62526400  1.0
  H  H8  4  0.02854500  0.37897100  0.58714600  1.0
  H  H9  4  0.07392100  0.18897100  0.54600900  1.0
  H  H10  4  0.07497900  0.34285400  0.51527300  1.0
  H  H11  4  0.07519500  0.29234500  0.66711400  1.0
  H  H12  4  0.16752200  0.15370100  0.65169400  1.0
  H  H13  4  0.16785200  0.30151700  0.70583100  1.0
  H  H14  4  0.17110500  0.27287200  0.55083600  1.0
  H  H15  4  0.21298400  0.19463100  0.78076400  1.0
  H  H16  4  0.21664300  0.16796600  0.60894400  1.0
  H  H17  4  0.21688100  0.32933400  0.67338100  1.0
  H  H18  4  0.28975600  0.29151900  0.70193800  1.0
  H  H19  4  0.29940800  0.17836300  0.80677700  1.0
  H  H20  4  0.30332600  0.32918700  0.84866100  1.0
  H  H21  4  0.33458800  0.18414200  0.64771800  1.0
  H  H22  4  0.33599300  0.35670100  0.66232900  1.0
  H  H23  4  0.34747100  0.04423100  0.89550600  1.0
  H  H24  4  0.37277200  0.45672400  0.82816200  1.0
  H  H25  4  0.40917100  0.43562000  0.02712800  1.0
  H  H26  4  0.41474900  0.21874700  0.16012600  1.0
  C+  C27  4  0.25675000  0.25050000  0.22670000  0.25
  Sn+  Sn28  4  0.25675000  0.25050000  0.22670000  0.25
  Ge+  Ge29  4  0.25675000  0.25050000  0.22670000  0.25
  Pb+  Pb30  4  0.25675000  0.25050000  0.22670000  0.25
  Pb  Pb31  4  0.11482000  0.25080000  0.15310000  1.0
  Pb  Pb32  4  0.47346000  0.25110000  0.57630000  1.0
  C  C33  4  0.03500000  0.28000000  0.55900000  1.0
  C  C34  4  0.20800000  0.23200000  0.68000000  1.0
  C  C35  4  0.33330000  0.26600000  0.71600000  1.0
  C  C36  4  0.35720000  0.25200000  0.84600000  1.0
  C  C37  4  0.36040000  0.12600000  0.92300000  1.0
  C  C38  4  0.39620000  0.35400000  0.00000000  1.0
  C  C39  4  0.39950000  0.22800000  0.07700000  1.0
  I  I40  4  0.04545000  0.30030000  0.10880000  1.0
  I  I41  4  0.10800000  0.00440000  0.90150000  1.0
  I  I42  4  0.12340000  0.49500000  0.41900000  1.0
  I  I43  4  0.18530000  0.20840000  0.18180000  1.0
  I  I44  4  0.24970000  0.49570000  0.48180000  1.0
  I  I45  4  0.26450000  0.00210000  0.47480000  1.0
  I  I46  4  0.32510000  0.31270000  0.24430000  1.0
  I  I47  4  0.40510000  0.28190000  0.52750000  1.0
  I  I48  4  0.46690000  0.00300000  0.82240000  1.0
  I  I49  4  0.48070000  0.49280000  0.33160000  1.0
  N  N50  4  0.06800000  0.28000000  0.57300000  1.0
  N  N51  4  0.17500000  0.24000000  0.64300000  1.0
  N  N52  4  0.30330000  0.26600000  0.77400000  1.0
  N  N53  4  0.38150000  0.11400000  0.03900000  1.0
