# generated using pymatgen
data_Au0.5Rg0.5Te2H4Pb2Se2Cl1.5F0.5
_symmetry_space_group_name_H-M  'P 4 m m'
_cell_length_a   5.88000000
_cell_length_b   5.88000000
_cell_length_c   5.50000000
_cell_angle_alpha   90.00000000
_cell_angle_beta   90.00000000
_cell_angle_gamma   90.00000000
_symmetry_Int_Tables_number   99
_chemical_formula_structural   Au0.5Rg0.5Te2H4Pb2Se2Cl1.5F0.5
_chemical_formula_sum   'Au0.5 Rg0.5 Te2 H4 Pb2 Se2 Cl1.5 F0.5'
_cell_volume   190.15920000
_cell_formula_units_Z   1
loop_
 _symmetry_equiv_pos_site_id
 _symmetry_equiv_pos_as_xyz
  1  'x, y, z'
  2  '-y, x, z'
  3  '-x, -y, z'
  4  'y, -x, z'
  5  '-x, y, z'
  6  'y, x, z'
  7  'x, -y, z'
  8  '-y, -x, z'
loop_
 _atom_site_type_symbol
 _atom_site_label
 _atom_site_symmetry_multiplicity
 _atom_site_fract_x
 _atom_site_fract_y
 _atom_site_fract_z
 _atom_site_occupancy
  Au+  Au0  1  0.00000000  0.00000000  0.02820000  0.5
  Rg+  Rg1  1  0.00000000  0.00000000  0.02820000  0.5
  H  H2  4  0.29100000  0.29100000  0.12200000  1
  Se+  Se3  4  0.23360000  0.23360000  0.96600000  0.5
  Te+  Te4  4  0.23360000  0.23360000  0.96600000  0.5
  Pb  Pb5  2  0.00000000  0.50000000  0.72980000  1
  Cl  Cl6  1  0.00000000  0.00000000  0.49200000  1
  F+  F7  1  0.50000000  0.50000000  0.42000000  0.5
  Cl+  Cl8  1  0.50000000  0.50000000  0.42000000  0.5
