# generated using pymatgen
data_Ti1Si0.66666667Sn0.16666667Po0.16666667Pb0.16666667Lv0.33333333Se0.3333333
_symmetry_space_group_name_H-M  'P 4 m m'
_cell_length_a   3.92110000
_cell_length_b   3.92110000
_cell_length_c   4.10250000
_cell_angle_alpha   90.00000000
_cell_angle_beta   90.00000000
_cell_angle_gamma   90.00000000
_symmetry_Int_Tables_number   99
_chemical_formula_structural
;
Ti1Si0.66666667Sn0.16666667Po0.16666667Pb0.16666667Lv0.33333333Se0.333
33333O2.16666667
;
_chemical_formula_sum
;
Ti1 Si0.66666667 Sn0.16666667 Po0.16666667 Pb0.16666667 Lv0.33333333
Se0.33333333 O2.16666667
;
_cell_volume   63.07604092
_cell_formula_units_Z   1
loop_
 _symmetry_equiv_pos_site_id
 _symmetry_equiv_pos_as_xyz
  1  'x, y, z'
  2  '-y, x, z'
  3  '-x, -y, z'
  4  'y, -x, z'
  5  '-x, y, z'
  6  'y, x, z'
  7  'x, -y, z'
  8  '-y, -x, z'
loop_
 _atom_site_type_symbol
 _atom_site_label
 _atom_site_symmetry_multiplicity
 _atom_site_fract_x
 _atom_site_fract_y
 _atom_site_fract_z
 _atom_site_occupancy
  Ti  Ti0  1  0.50000000  0.50000000  0.53250000  1.0
  Si+  Si1  1  0.00000000  0.00000000  0.00000000
  0.6666666666666666
  Sn+  Sn2  1  0.00000000  0.00000000  0.00000000
  0.16666666666666666
  Pb+  Pb3  1  0.00000000  0.00000000  0.00000000
  0.16666666666666666
  Lv+  Lv4  1  0.50000000  0.50000000  0.09600000
  0.3333333333333333
  O+  O5  1  0.50000000  0.50000000  0.09600000  0.16666666666666666
  Po+  Po6  1  0.50000000  0.50000000  0.09600000
  0.16666666666666666
  Se+  Se7  1  0.50000000  0.50000000  0.09600000
  0.3333333333333333
  O  O8  2  0.00000000  0.50000000  0.59600000  1.0
