# generated using pymatgen
data_Tb0.5Pm3.5Ho2Er2S6O8
_symmetry_space_group_name_H-M  'P b a m'
_cell_length_a   6.85100000
_cell_length_b   14.52900000
_cell_length_c   3.95800000
_cell_angle_alpha   90.00000000
_cell_angle_beta   90.00000000
_cell_angle_gamma   90.00000000
_symmetry_Int_Tables_number   55
_chemical_formula_structural   Tb0.5Pm3.5Ho2Er2S6O8
_chemical_formula_sum   'Tb0.5 Pm3.5 Ho2 Er2 S6 O8'
_cell_volume   393.97211248
_cell_formula_units_Z   1
loop_
 _symmetry_equiv_pos_site_id
 _symmetry_equiv_pos_as_xyz
  1  'x, y, z'
  2  '-x, -y, -z'
  3  '-x, -y, z'
  4  'x, y, -z'
  5  'x+1/2, -y+1/2, -z'
  6  '-x+1/2, y+1/2, z'
  7  '-x+1/2, y+1/2, -z'
  8  'x+1/2, -y+1/2, z'
loop_
 _atom_site_type_symbol
 _atom_site_label
 _atom_site_symmetry_multiplicity
 _atom_site_fract_x
 _atom_site_fract_y
 _atom_site_fract_z
 _atom_site_occupancy
  Pm+  Pm0  4  0.21230000  0.92243000  0.00000000  0.875
  Tb+  Tb1  4  0.21230000  0.92243000  0.00000000  0.125
  Er+  Er2  4  0.21840000  0.16183000  0.50000000  0.5
  Ho+  Ho3  4  0.21840000  0.16183000  0.50000000  0.5
  S  S4  4  0.01240000  0.28110000  0.00000000  1.0
  S  S5  2  0.00000000  0.50000000  0.50000000  1.0
  O  O6  4  0.12800000  0.87600000  0.50000000  1.0
  O  O7  4  0.13700000  0.06940000  0.00000000  1.0
