# generated using pymatgen
data_Sn5.5Ge2.5H40C8S4O8F16
_symmetry_space_group_name_H-M  'P b c m'
_cell_length_a   4.64020000
_cell_length_b   13.16800000
_cell_length_c   13.50300000
_cell_angle_alpha   90.00000000
_cell_angle_beta   90.00000000
_cell_angle_gamma   90.00000000
_symmetry_Int_Tables_number   57
_chemical_formula_structural   Sn5.5Ge2.5H40C8S4O8F16
_chemical_formula_sum   'Sn5.5 Ge2.5 H40 C8 S4 O8 F16'
_cell_volume   825.06238006
_cell_formula_units_Z   1
loop_
 _symmetry_equiv_pos_site_id
 _symmetry_equiv_pos_as_xyz
  1  'x, y, z'
  2  '-x, -y, -z'
  3  '-x, -y, z+1/2'
  4  'x, y, -z+1/2'
  5  'x, -y+1/2, -z'
  6  '-x, y+1/2, z'
  7  '-x, y+1/2, -z+1/2'
  8  'x, -y+1/2, z+1/2'
loop_
 _atom_site_type_symbol
 _atom_site_label
 _atom_site_symmetry_multiplicity
 _atom_site_fract_x
 _atom_site_fract_y
 _atom_site_fract_z
 _atom_site_occupancy
  Sn+  Sn0  8  0.26590000  0.07010000  0.60789000  0.6875
  Ge+  Ge1  8  0.26590000  0.07010000  0.60789000  0.3125
  H  H2  8  0.04780000  0.15290000  0.45320000  1.0
  H  H3  8  0.08820000  0.05510000  0.85580000  1.0
  H  H4  8  0.15300000  0.67750000  0.54690000  1.0
  H  H5  8  0.27700000  0.02680000  0.95100000  1.0
  H  H6  8  0.43250000  0.05690000  0.84940000  1.0
  C  C7  8  0.03080000  0.19490000  0.51376000  1.0
  S  S8  4  0.42781000  0.21072000  0.25000000  1.0
  O  O9  8  0.26612000  0.17371000  0.57865000  1.0
  F  F10  8  0.42246000  0.65562000  0.16284000  1.0
  F  F11  4  0.18870000  0.11557000  0.25000000  1.0
  F  F12  4  0.29770000  0.70843000  0.75000000  1.0
