# generated using pymatgen
data_Fl2.5Si0.5Ge0.5Pb0.5O4
_symmetry_space_group_name_H-M  'P b m a'
_cell_length_a   5.89100000
_cell_length_b   4.77500000
_cell_length_c   5.48900000
_cell_angle_alpha   90.00000000
_cell_angle_beta   90.00000000
_cell_angle_gamma   90.00000000
_symmetry_Int_Tables_number   57
_chemical_formula_structural   Fl2.5Si0.5Ge0.5Pb0.5O4
_chemical_formula_sum   'Fl2.5 Si0.5 Ge0.5 Pb0.5 O4'
_cell_volume   154.40296273
_cell_formula_units_Z   1
loop_
 _symmetry_equiv_pos_site_id
 _symmetry_equiv_pos_as_xyz
  1  'x, y, z'
  2  '-x, -y, -z'
  3  '-x, y+1/2, -z'
  4  'x, -y+1/2, z'
  5  '-x+1/2, -y, z'
  6  'x+1/2, y, -z'
  7  'x+1/2, -y+1/2, -z'
  8  '-x+1/2, y+1/2, z'
loop_
 _atom_site_type_symbol
 _atom_site_label
 _atom_site_symmetry_multiplicity
 _atom_site_fract_x
 _atom_site_fract_y
 _atom_site_fract_z
 _atom_site_occupancy
  Fl+  Fl0  4  0.02080000  0.75000000  0.76910000  0.625
  Pb+  Pb1  4  0.02080000  0.75000000  0.76910000  0.125
  Si+  Si2  4  0.02080000  0.75000000  0.76910000  0.125
  Ge+  Ge3  4  0.02080000  0.75000000  0.76910000  0.125
  O  O4  4  0.08860000  0.25000000  0.86910000  1
