# generated using pymatgen
data_Cd2SiSn2GeH40Pb3C28Fl5S3N12LvO12
_symmetry_space_group_name_H-M  'C m m 2'
_cell_length_a   23.19500000
_cell_length_b   6.51000000
_cell_length_c   6.89400000
_cell_angle_alpha   90.00000000
_cell_angle_beta   90.00000000
_cell_angle_gamma   90.00000000
_symmetry_Int_Tables_number   35
_chemical_formula_structural   Cd2SiSn2GeH40Pb3C28Fl5S3N12LvO12
_chemical_formula_sum
'Cd2 Si1 Sn2 Ge1 H40 Pb3 C28 Fl5 S3 N12 Lv1 O12'
_cell_volume   1040.99020830
_cell_formula_units_Z   1
loop_
 _symmetry_equiv_pos_site_id
 _symmetry_equiv_pos_as_xyz
  1  'x, y, z'
  2  '-x, -y, z'
  3  'x, -y, z'
  4  '-x, y, z'
  5  'x+1/2, y+1/2, z'
  6  '-x+1/2, -y+1/2, z'
  7  'x+1/2, -y+1/2, z'
  8  '-x+1/2, y+1/2, z'
loop_
 _atom_site_type_symbol
 _atom_site_label
 _atom_site_symmetry_multiplicity
 _atom_site_fract_x
 _atom_site_fract_y
 _atom_site_fract_z
 _atom_site_occupancy
  Cd  Cd0  2  0.00000000  0.00000000  0.03062000  1.0
  Sn+  Sn1  4  0.22380000  0.50000000  0.43150000  0.5
  Ge+  Ge2  4  0.22380000  0.50000000  0.43150000  0.25
  Pb+  Pb3  4  0.22380000  0.50000000  0.43150000  0.25
  H  H4  8  0.05340000  0.19620000  0.63480000  1.0
  H  H5  8  0.08650000  0.31500000  0.79810000  1.0
  H  H6  4  0.00000000  0.37970000  0.39420000  1.0
  H  H7  4  0.03380000  0.50000000  0.04780000  1.0
  H  H8  4  0.14200000  0.00000000  0.54870000  1.0
  H  H9  4  0.18690000  0.50000000  0.48380000  1.0
  H  H10  4  0.21010000  0.00000000  0.01840000  1.0
  H  H11  4  0.23240000  0.00000000  0.68630000  1.0
  C  C12  4  0.10740000  0.00000000  0.18720000  1.0
  C  C13  4  0.16700000  0.00000000  0.27210000  1.0
  C  C14  4  0.17440000  0.00000000  0.46900000  1.0
  C  C15  4  0.21440000  0.00000000  0.15260000  1.0
  C  C16  4  0.22820000  0.00000000  0.55200000  1.0
  C  C17  4  0.23150000  0.50000000  0.23600000  1.0
  Fl+  Fl18  8  0.05240000  0.31700000  0.71710000  0.625
  Si+  Si19  8  0.05240000  0.31700000  0.71710000  0.125
  Pb+  Pb20  8  0.05240000  0.31700000  0.71710000  0.25
  C  C21  2  0.00000000  0.50000000  0.47700000  1.0
  C  C22  2  0.00000000  0.50000000  0.96490000  1.0
  N  N23  4  0.00000000  0.30730000  0.84380000  1.0
  N  N24  4  0.05350000  0.50000000  0.59570000  1.0
  N  N25  4  0.18250000  0.50000000  0.10500000  1.0
  Lv+  Lv26  4  0.06400000  0.00000000  0.29180000  0.25
  S+  S27  4  0.06400000  0.00000000  0.29180000  0.75
  O  O28  4  0.10360000  0.00000000  0.99670000  1.0
  O  O29  4  0.13370000  0.50000000  0.17840000  1.0
  O  O30  4  0.18950000  0.50000000  0.92200000  1.0
