# generated using pymatgen
data_Gd3S3I0.33333333Cl0.33333333F2Ts0.33333333
_symmetry_space_group_name_H-M  'P -6'
_cell_length_a   10.73700000
_cell_length_b   10.73700000
_cell_length_c   4.17900000
_cell_angle_alpha   90.00000000
_cell_angle_beta   90.00000000
_cell_angle_gamma   120.00000000
_symmetry_Int_Tables_number   174
_chemical_formula_structural
Gd3S3I0.33333333Cl0.33333333F2Ts0.33333333
_chemical_formula_sum
'Gd3 S3 I0.33333333 Cl0.33333333 F2 Ts0.33333333'
_cell_volume   417.22364132
_cell_formula_units_Z   1
loop_
 _symmetry_equiv_pos_site_id
 _symmetry_equiv_pos_as_xyz
  1  'x, y, z'
  2  '-x+y, -x, -z'
  3  '-y, x-y, z'
  4  'x, y, -z'
  5  '-x+y, -x, z'
  6  '-y, x-y, -z'
loop_
 _atom_type_symbol
 _atom_type_oxidation_number
  Gd3+  3.0
  S2-  -2.0
  I+  1.0
  Cl+  1.0
  F+  1.0
  Ts+  1.0
loop_
 _atom_site_type_symbol
 _atom_site_label
 _atom_site_symmetry_multiplicity
 _atom_site_fract_x
 _atom_site_fract_y
 _atom_site_fract_z
 _atom_site_occupancy
  Gd3+  Gd0  3  0.36500000  0.18600000  0.50000000  1.0
  S2-  S1  3  0.18400000  0.36800000  0.50000000  1.0
  F+  F2  3  0.50200000  0.01900000  0.00000000  0.6666666666666666
  Cl+  Cl3  3  0.50200000  0.01900000  0.00000000
  0.1111111111111111
  I+  I4  3  0.50200000  0.01900000  0.00000000  0.1111111111111111
  Ts+  Ts5  3  0.50200000  0.01900000  0.00000000
  0.1111111111111111
