# generated using pymatgen
data_K1Na0.5Ni12Bi0.5Sb1As4.5H0.5Mc1
_symmetry_space_group_name_H-M  'P -6'
_cell_length_a   9.42900000
_cell_length_b   9.42900000
_cell_length_c   3.74330000
_cell_angle_alpha   90.00000000
_cell_angle_beta   90.00000000
_cell_angle_gamma   120.00000000
_symmetry_Int_Tables_number   174
_chemical_formula_structural   K1Na0.5Ni12Bi0.5Sb1As4.5H0.5Mc1
_chemical_formula_sum   'K1 Na0.5 Ni12 Bi0.5 Sb1 As4.5 H0.5 Mc1'
_cell_volume   288.21497195
_cell_formula_units_Z   1
loop_
 _symmetry_equiv_pos_site_id
 _symmetry_equiv_pos_as_xyz
  1  'x, y, z'
  2  '-x+y, -x, -z'
  3  '-y, x-y, z'
  4  'x, y, -z'
  5  '-x+y, -x, z'
  6  '-y, x-y, -z'
loop_
 _atom_site_type_symbol
 _atom_site_label
 _atom_site_symmetry_multiplicity
 _atom_site_fract_x
 _atom_site_fract_y
 _atom_site_fract_z
 _atom_site_occupancy
  K  K0  1  0.33333333  0.66666667  0.00000000  1.0
  H+  H1  1  0.66666667  0.33333333  0.50000000  0.5
  Na+  Na2  1  0.66666667  0.33333333  0.50000000  0.5
  Ni  Ni3  3  0.04712000  0.42750000  0.50000000  1.0
  Ni  Ni4  3  0.12169000  0.27924000  0.00000000  1.0
  Ni  Ni5  3  0.21362000  0.11956000  0.50000000  1.0
  Ni  Ni6  3  0.43376000  0.38147000  0.00000000  1.0
  As  As7  3  0.41124000  0.12296000  0.00000000  1.0
  As  As8  1  0.00000000  0.00000000  0.00000000  1.0
  Bi+  Bi9  3  0.11634000  0.70546000  0.50000000
  0.16666666666666666
  As+  As10  3  0.11634000  0.70546000  0.50000000
  0.16666666666666666
  Sb+  Sb11  3  0.11634000  0.70546000  0.50000000
  0.3333333333333333
  Mc+  Mc12  3  0.11634000  0.70546000  0.50000000
  0.3333333333333333
