# generated using pymatgen
data_H16N14Mc1Sb0.5As0.5
_symmetry_space_group_name_H-M  'P m n a'
_cell_length_a   8.91700000
_cell_length_b   3.77610000
_cell_length_c   8.63900000
_cell_angle_alpha   90.00000000
_cell_angle_beta   90.00000000
_cell_angle_gamma   90.00000000
_symmetry_Int_Tables_number   53
_chemical_formula_structural   H16N14Mc1Sb0.5As0.5
_chemical_formula_sum   'H16 N14 Mc1 Sb0.5 As0.5'
_cell_volume   290.88794768
_cell_formula_units_Z   1
loop_
 _symmetry_equiv_pos_site_id
 _symmetry_equiv_pos_as_xyz
  1  'x, y, z'
  2  '-x, -y, -z'
  3  '-x+1/2, -y, z+1/2'
  4  'x+1/2, y, -z+1/2'
  5  'x, -y, -z'
  6  '-x, y, z'
  7  '-x+1/2, y, -z+1/2'
  8  'x+1/2, -y, z+1/2'
loop_
 _atom_site_type_symbol
 _atom_site_label
 _atom_site_symmetry_multiplicity
 _atom_site_fract_x
 _atom_site_fract_y
 _atom_site_fract_z
 _atom_site_occupancy
  H0+  H0  8  0.17460000  0.40000000  0.28690000  1.0
  H0+  H1  8  0.21450000  0.33000000  0.82750000  1.0
  N  N2  4  0.00000000  0.11010000  0.37233000  1.0
  N  N3  4  0.13220000  0.00000000  0.00000000  1.0
  N+  N4  4  0.25000000  0.45510000  0.75000000  0.5
  Mc+  Mc5  4  0.25000000  0.45510000  0.75000000  0.25
  Sb+  Sb6  4  0.25000000  0.45510000  0.75000000  0.125
  As+  As7  4  0.25000000  0.45510000  0.75000000  0.125
  N  N8  2  0.00000000  0.00000000  0.00000000  1.0
  N  N9  2  0.00000000  0.00000000  0.50000000  1.0
