# generated using pymatgen
data_Hs0.33333333Fe0.33333333Ru1Os0.33333333H12Pt2C24N16F4
_symmetry_space_group_name_H-M  'P m n a'
_cell_length_a   7.25720000
_cell_length_b   6.98610000
_cell_length_c   14.99220000
_cell_angle_alpha   90.00000000
_cell_angle_beta   90.00000000
_cell_angle_gamma   90.00000000
_symmetry_Int_Tables_number   53
_chemical_formula_structural
Hs0.33333333Fe0.33333333Ru1Os0.33333333H12Pt2C24N16F4
_chemical_formula_sum
'Hs0.33333333 Fe0.33333333 Ru1 Os0.33333333 H12 Pt2 C24 N16 F4'
_cell_volume   760.09741751
_cell_formula_units_Z   1
loop_
 _symmetry_equiv_pos_site_id
 _symmetry_equiv_pos_as_xyz
  1  'x, y, z'
  2  '-x, -y, -z'
  3  '-x+1/2, -y, z+1/2'
  4  'x+1/2, y, -z+1/2'
  5  'x, -y, -z'
  6  '-x, y, z'
  7  '-x+1/2, y, -z+1/2'
  8  'x+1/2, -y, z+1/2'
loop_
 _atom_site_type_symbol
 _atom_site_label
 _atom_site_symmetry_multiplicity
 _atom_site_fract_x
 _atom_site_fract_y
 _atom_site_fract_z
 _atom_site_occupancy
  Hs+  Hs0  2  0.00000000  0.50000000  0.50000000
  0.16666666666666666
  Ru+  Ru1  2  0.00000000  0.50000000  0.50000000  0.5
  Os+  Os2  2  0.00000000  0.50000000  0.50000000
  0.16666666666666666
  Fe+  Fe3  2  0.00000000  0.50000000  0.50000000
  0.16666666666666666
  H  H4  4  0.00000000  0.14910000  0.61200000  1.0
  H  H5  4  0.00000000  0.30570000  0.32170000  1.0
  H  H6  4  0.00000000  0.39310000  0.17530000  1.0
  Pt  Pt7  2  0.00000000  0.00000000  0.00000000  1.0
  C  C8  8  0.19510000  0.19700000  0.01580000  1.0
  C  C9  4  0.00000000  0.20390000  0.74400000  1.0
  C  C10  4  0.00000000  0.24660000  0.65430000  1.0
  C  C11  4  0.00000000  0.43470000  0.30660000  1.0
  C  C12  4  0.00000000  0.48860000  0.21850000  1.0
  N  N13  8  0.19060000  0.30950000  0.48087000  1.0
  N  N14  4  0.00000000  0.32790000  0.80870000  1.0
  N  N15  4  0.00000000  0.42990000  0.62870000  1.0
  F  F16  4  0.00000000  0.01730000  0.76830000  1.0
