# generated using pymatgen
data_K0.33333333Na0.66666667Si2Ge2H43C27Fl1O6
_symmetry_space_group_name_H-M  'R 3 m :R'
_cell_length_a   9.46870000
_cell_length_b   9.46870000
_cell_length_c   9.46870000
_cell_angle_alpha   98.20100000
_cell_angle_beta   98.20100000
_cell_angle_gamma   98.20100000
_symmetry_Int_Tables_number   160
_chemical_formula_structural
K0.33333333Na0.66666667Si2Ge2H43C27Fl1O6
_chemical_formula_sum
'K0.33333333 Na0.66666667 Si2 Ge2 H43 C27 Fl1 O6'
_cell_volume   820.06268063
_cell_formula_units_Z   1
loop_
 _symmetry_equiv_pos_site_id
 _symmetry_equiv_pos_as_xyz
  1  'x, y, z'
  2  'z, x, y'
  3  'y, z, x'
  4  'z, y, x'
  5  'y, x, z'
  6  'x, z, y'
loop_
 _atom_site_type_symbol
 _atom_site_label
 _atom_site_symmetry_multiplicity
 _atom_site_fract_x
 _atom_site_fract_y
 _atom_site_fract_z
 _atom_site_occupancy
  K+  K0  1  0.64113000  0.64113000  0.64113000  0.3333333333333333
  Na+  Na1  1  0.64113000  0.64113000  0.64113000
  0.6666666666666666
  Si  Si2  1  0.38758000  0.38758000  0.38758000  1.0
  Si  Si3  1  0.96904000  0.96904000  0.96904000  1.0
  H  H4  6  0.04400000  0.43900000  0.60400000  1.0
  H  H5  6  0.04900000  0.56500000  0.72700000  1.0
  H  H6  6  0.32600000  0.64600000  0.82100000  1.0
  H  H7  6  0.33900000  0.78000000  0.93900000  1.0
  H  H8  3  0.03970000  0.21240000  0.21240000  1.0
  H  H9  3  0.12910000  0.12910000  0.53760000  1.0
  H  H10  3  0.31150000  0.31150000  0.66580000  1.0
  H  H11  3  0.34400000  0.49600000  0.49600000  1.0
  H  H12  3  0.35090000  0.35090000  0.91100000  1.0
  H  H13  3  0.66510000  0.98300000  0.98300000  1.0
  H  H14  1  0.86900000  0.86900000  0.86900000  1.0
  C  C15  6  0.39160000  0.72170000  0.88710000  1.0
  C  C16  6  0.49200000  0.65570000  0.98560000  1.0
  C  C17  3  0.05790000  0.05790000  0.71670000  1.0
  C  C18  3  0.08330000  0.08330000  0.86700000  1.0
  C  C19  3  0.14540000  0.14540000  0.64040000  1.0
  C  C20  3  0.25310000  0.25310000  0.71620000  1.0
  C  C21  3  0.27600000  0.27600000  0.85990000  1.0
  Ge+  Ge22  3  0.19330000  0.19330000  0.93690000
  0.6666666666666666
  Fl+  Fl23  3  0.19330000  0.19330000  0.93690000
  0.3333333333333333
  O  O24  3  0.47520000  0.80798000  0.80798000  1.0
  O  O25  3  0.56030000  0.56030000  0.89920000  1.0
