# generated using pymatgen
data_Si26PbFl2Sn(GeC11)2
_symmetry_space_group_name_H-M  'R 3 m :H'
_cell_length_a   3.07900000
_cell_length_b   3.07900000
_cell_length_c   67.99599000
_cell_angle_alpha   90.00000000
_cell_angle_beta   90.00000000
_cell_angle_gamma   120.00000000
_symmetry_Int_Tables_number   160
_chemical_formula_structural   Si26PbFl2Sn(GeC11)2
_chemical_formula_sum   'Si26.0 Pb1 Fl2.0 Sn1 Ge2.0 C22'
_cell_volume   558.25588610
_cell_formula_units_Z   1
loop_
 _symmetry_equiv_pos_site_id
 _symmetry_equiv_pos_as_xyz
  1  'x, y, z'
  2  '-y, x-y, z'
  3  '-x+y, -x, z'
  4  '-y, -x, z'
  5  '-x+y, y, z'
  6  'x, x-y, z'
  7  'x+2/3, y+1/3, z+1/3'
  8  '-y+2/3, x-y+1/3, z+1/3'
  9  '-x+y+2/3, -x+1/3, z+1/3'
  10  '-y+2/3, -x+1/3, z+1/3'
  11  '-x+y+2/3, y+1/3, z+1/3'
  12  'x+2/3, x-y+1/3, z+1/3'
  13  'x+1/3, y+2/3, z+2/3'
  14  '-y+1/3, x-y+2/3, z+2/3'
  15  '-x+y+1/3, -x+2/3, z+2/3'
  16  '-y+1/3, -x+2/3, z+2/3'
  17  '-x+y+1/3, y+2/3, z+2/3'
  18  'x+1/3, x-y+2/3, z+2/3'
loop_
 _atom_type_symbol
 _atom_type_oxidation_number
  Si0+  0.0
  Sn0+  0.0
  Ge0+  0.0
  Pb0+  0.0
  C0+  0.0
  Fl0+  0.0
loop_
 _atom_site_type_symbol
 _atom_site_label
 _atom_site_symmetry_multiplicity
 _atom_site_fract_x
 _atom_site_fract_y
 _atom_site_fract_z
 _atom_site_occupancy
  Si0+  Si0  3  0.00000000  0.00000000  0.00000000  1.0
  Si0+  Si1  3  0.00000000  0.00000000  0.14800000  1.0
  Si0+  Si2  3  0.00000000  0.00000000  0.37000000  1.0
  Si0+  Si3  3  0.00000000  0.00000000  0.44400000  1.0
  Si0+  Si4  3  0.00000000  0.00000000  0.51900000  1.0
  Si0+  Si5  3  0.00000000  0.00000000  0.59300000  1.0
  Si0+  Si6  3  0.00000000  0.00000000  0.74100000  1.0
  Si0+  Si7  3  0.00000000  0.00000000  0.88900000  1.0
  Pb0+  Pb8  3  0.00000000  0.00000000  0.29600000
  0.3333333333333333
  Fl0+  Fl9  3  0.00000000  0.00000000  0.29600000
  0.3333333333333333
  Si0+  Si10  3  0.00000000  0.00000000  0.29600000
  0.3333333333333333
  Ge0+  Ge11  3  0.00000000  0.00000000  0.47200000
  0.3333333333333333
  C0+  C12  3  0.00000000  0.00000000  0.47200000
  0.3333333333333333
  Si0+  Si13  3  0.00000000  0.00000000  0.47200000
  0.3333333333333333
  C0+  C14  3  0.00000000  0.00000000  0.02800000  1.0
  C0+  C15  3  0.00000000  0.00000000  0.17600000  1.0
  C0+  C16  3  0.00000000  0.00000000  0.39800000  1.0
  C0+  C17  3  0.00000000  0.00000000  0.54600000  1.0
  C0+  C18  3  0.00000000  0.00000000  0.62000000  1.0
  C0+  C19  3  0.00000000  0.00000000  0.76900000  1.0
  C0+  C20  3  0.00000000  0.00000000  0.91700000  1.0
  Ge0+  Ge21  3  0.00000000  0.00000000  0.32400000
  0.3333333333333333
  Fl0+  Fl22  3  0.00000000  0.00000000  0.32400000
  0.3333333333333333
  Sn0+  Sn23  3  0.00000000  0.00000000  0.32400000
  0.3333333333333333
