# generated using pymatgen
data_La0.66666667Nd0.66666667Dy0.33333333Er0.33333333Ni2C4
_symmetry_space_group_name_H-M  'A m m 2'
_cell_length_a   3.53000000
_cell_length_b   4.48600000
_cell_length_c   6.01400000
_cell_angle_alpha   90.00000000
_cell_angle_beta   90.00000000
_cell_angle_gamma   90.00000000
_symmetry_Int_Tables_number   38
_chemical_formula_structural
La0.66666667Nd0.66666667Dy0.33333333Er0.33333333Ni2C4
_chemical_formula_sum
'La0.66666667 Nd0.66666667 Dy0.33333333 Er0.33333333 Ni2 C4'
_cell_volume   95.23517812
_cell_formula_units_Z   1
loop_
 _symmetry_equiv_pos_site_id
 _symmetry_equiv_pos_as_xyz
  1  'x, y, z'
  2  '-x, -y, z'
  3  '-x, y, z'
  4  'x, -y, z'
  5  'x, y+1/2, z+1/2'
  6  '-x, -y+1/2, z+1/2'
  7  '-x, y+1/2, z+1/2'
  8  'x, -y+1/2, z+1/2'
loop_
 _atom_site_type_symbol
 _atom_site_label
 _atom_site_symmetry_multiplicity
 _atom_site_fract_x
 _atom_site_fract_y
 _atom_site_fract_z
 _atom_site_occupancy
  Er+  Er0  2  0.00000000  0.00000000  0.00000000
  0.16666666666666666
  Nd+  Nd1  2  0.00000000  0.00000000  0.00000000
  0.3333333333333333
  La+  La2  2  0.00000000  0.00000000  0.00000000
  0.3333333333333333
  Dy+  Dy3  2  0.00000000  0.00000000  0.00000000
  0.16666666666666666
  Ni  Ni4  2  0.50000000  0.00000000  0.61200000  1.0
  C  C5  4  0.50000000  0.15300000  0.30200000  1.0
