# generated using pymatgen
data_Rb4Po1.25Te0.25H60C20S0.25Br12N8O0.25
_symmetry_space_group_name_H-M  'A m m 2'
_cell_length_a   13.47700000
_cell_length_b   9.56170000
_cell_length_c   9.85000000
_cell_angle_alpha   90.00000000
_cell_angle_beta   90.00000000
_cell_angle_gamma   90.00000000
_symmetry_Int_Tables_number   38
_chemical_formula_structural   Rb4Po1.25Te0.25H60C20S0.25Br12N8O0.25
_chemical_formula_sum
'Rb4 Po1.25 Te0.25 H60 C20 S0.25 Br12 N8 O0.25'
_cell_volume   1269.30085437
_cell_formula_units_Z   1
loop_
 _symmetry_equiv_pos_site_id
 _symmetry_equiv_pos_as_xyz
  1  'x, y, z'
  2  '-x, -y, z'
  3  '-x, y, z'
  4  'x, -y, z'
  5  'x, y+1/2, z+1/2'
  6  '-x, -y+1/2, z+1/2'
  7  '-x, y+1/2, z+1/2'
  8  'x, -y+1/2, z+1/2'
loop_
 _atom_site_type_symbol
 _atom_site_label
 _atom_site_symmetry_multiplicity
 _atom_site_fract_x
 _atom_site_fract_y
 _atom_site_fract_z
 _atom_site_occupancy
  Rb  Rb0  2  0.00000000  0.00000000  0.59734000  1.0
  Rb  Rb1  2  0.50000000  0.00000000  0.46330000  1.0
  H  H2  8  0.09850000  0.08510000  0.21500000  1.0
  H  H3  8  0.19800000  0.21310000  0.04950000  1.0
  H  H4  8  0.21180000  0.13660000  0.82430000  1.0
  H  H5  8  0.29660000  0.12930000  0.09050000  1.0
  H  H6  8  0.31300000  0.21230000  0.86740000  1.0
  H  H7  4  0.11870000  0.00000000  0.99500000  1.0
  H  H8  4  0.19450000  0.00000000  0.26350000  1.0
  H  H9  4  0.34100000  0.00000000  0.75810000  1.0
  H  H10  4  0.38620000  0.00000000  0.89410000  1.0
  H  H11  4  0.50000000  0.07490000  0.06070000  1.0
  Po+  Po12  2  0.50000000  0.00000000  0.00970000  0.625
  O+  O13  2  0.50000000  0.00000000  0.00970000  0.125
  S+  S14  2  0.50000000  0.00000000  0.00970000  0.125
  Te+  Te15  2  0.50000000  0.00000000  0.00970000  0.125
  C  C16  8  0.23780000  0.12840000  0.03030000  1.0
  C  C17  8  0.27080000  0.12930000  0.88380000  1.0
  C  C18  4  0.13830000  0.00000000  0.19960000  1.0
  Br  Br19  4  0.00000000  0.20171000  0.89777000  1.0
  Br  Br20  4  0.25385000  0.00000000  0.53510000  1.0
  Br  Br21  4  0.50000000  0.24306000  0.71977000  1.0
  N  N22  4  0.17660000  0.00000000  0.05840000  1.0
  N  N23  4  0.32740000  0.00000000  0.84860000  1.0
