# generated using pymatgen
data_Rb1Na0.33333333Li0.33333333P4H13.33333333Ru2O20
_symmetry_space_group_name_H-M  'P -1'
_cell_length_a   7.40470000
_cell_length_b   7.62920000
_cell_length_c   7.67710000
_cell_angle_alpha   94.65800000
_cell_angle_beta   98.75400000
_cell_angle_gamma   112.86400000
_symmetry_Int_Tables_number   2
_chemical_formula_structural
Rb1Na0.33333333Li0.33333333P4H13.33333333Ru2O20
_chemical_formula_sum
'Rb1 Na0.33333333 Li0.33333333 P4 H13.33333333 Ru2 O20'
_cell_volume   390.24560726
_cell_formula_units_Z   1
loop_
 _symmetry_equiv_pos_site_id
 _symmetry_equiv_pos_as_xyz
  1  'x, y, z'
  2  '-x, -y, -z'
loop_
 _atom_site_type_symbol
 _atom_site_label
 _atom_site_symmetry_multiplicity
 _atom_site_fract_x
 _atom_site_fract_y
 _atom_site_fract_z
 _atom_site_occupancy
  Rb+  Rb0  2  0.41600000  0.16000000  0.53600000  0.5
  Li+  Li1  2  0.41600000  0.16000000  0.53600000
  0.16666666666666666
  Na+  Na2  2  0.41600000  0.16000000  0.53600000
  0.16666666666666666
  H+  H3  2  0.41600000  0.16000000  0.53600000  0.16666666666666666
  P  P4  2  0.28546000  0.66199000  0.13531000  1.0
  P  P5  2  0.48960000  0.24223000  0.30195000  1.0
  H  H6  2  0.00800000  0.23500000  0.48300000  1.0
  H  H7  2  0.04600000  0.06100000  0.18500000  1.0
  H  H8  2  0.05600000  0.07800000  0.72000000  1.0
  H  H9  2  0.11100000  0.62500000  0.32200000  1.0
  H  H10  2  0.15100000  0.36400000  0.58300000  1.0
  H  H11  2  0.28500000  0.40800000  0.05200000  1.0
  Ru  Ru12  2  0.34945000  0.99579000  0.92359000  1.0
  H  H13  1  0.50000000  0.50000000  0.50000000  1.0
  O  O14  2  0.04190000  0.28350000  0.58880000  1.0
  O  O15  2  0.05400000  0.98230000  0.76930000  1.0
  O  O16  2  0.18310000  0.57430000  0.28540000  1.0
  O  O17  2  0.18450000  0.77730000  0.04120000  1.0
  O  O18  2  0.27000000  0.49450000  0.99860000  1.0
  O  O19  2  0.33190000  0.80560000  0.71810000  1.0
  O  O20  2  0.34190000  0.18850000  0.12200000  1.0
  O  O21  2  0.36620000  0.11620000  0.42830000  1.0
  O  O22  2  0.43890000  0.54650000  0.62630000  1.0
  O  O23  2  0.49370000  0.21000000  0.78690000  1.0
