# generated using pymatgen
data_K4V8PoTeSI4Br7ClO49
_symmetry_space_group_name_H-M  'I m a 2'
_cell_length_a   14.13600000
_cell_length_b   10.20100000
_cell_length_c   8.06380000
_cell_angle_alpha   90.00000000
_cell_angle_beta   90.00000000
_cell_angle_gamma   90.00000000
_symmetry_Int_Tables_number   46
_chemical_formula_structural   K4V8PoTeSI4Br7ClO49
_chemical_formula_sum   'K4 V8 Po1 Te1 S1 I4 Br7 Cl1 O49'
_cell_volume   1162.81073324
_cell_formula_units_Z   1
loop_
 _symmetry_equiv_pos_site_id
 _symmetry_equiv_pos_as_xyz
  1  'x, y, z'
  2  '-x, -y, z'
  3  '-x, y+1/2, z+1/2'
  4  'x, -y+1/2, z+1/2'
  5  'x+1/2, y+1/2, z+1/2'
  6  '-x+1/2, -y+1/2, z+1/2'
  7  '-x+1/2, y, z'
  8  'x+1/2, -y, z'
loop_
 _atom_site_type_symbol
 _atom_site_label
 _atom_site_symmetry_multiplicity
 _atom_site_fract_x
 _atom_site_fract_y
 _atom_site_fract_z
 _atom_site_occupancy
  K  K0  4  0.25000000  0.61020000  0.97370000  1.0
  V  V1  8  0.12850000  0.51630000  0.51610000  1.0
  S+  S2  4  0.25000000  0.14890000  0.55420000  0.25
  Po+  Po3  4  0.25000000  0.14890000  0.55420000  0.25
  O+  O4  4  0.25000000  0.14890000  0.55420000  0.25
  Te+  Te5  4  0.25000000  0.14890000  0.55420000  0.25
  I  I6  4  0.25000000  0.21777000  0.75987000  1.0
  Br+  Br7  8  0.00879000  0.74460000  0.74310000  0.875
  Cl+  Cl8  8  0.00879000  0.74460000  0.74310000  0.125
  O  O9  8  0.03840000  0.65740000  0.07030000  1.0
  O  O10  8  0.09680000  0.61100000  0.71860000  1.0
  O  O11  8  0.09730000  0.15640000  0.17160000  1.0
  O  O12  8  0.15220000  0.11960000  0.84500000  1.0
  O  O13  8  0.15420000  0.64110000  0.39900000  1.0
  O  O14  4  0.00000000  0.00000000  0.95700000  1.0
  O  O15  4  0.25000000  0.01580000  0.10150000  1.0
