# generated using pymatgen
data_K0.5Li1.5Cd4Si1.5Ge0.5H22C29.5Fl0.5S8N20
_symmetry_space_group_name_H-M  'P 21 21 2'
_cell_length_a   11.23980000
_cell_length_b   14.83260000
_cell_length_c   7.34490000
_cell_angle_alpha   90.00000000
_cell_angle_beta   90.00000000
_cell_angle_gamma   90.00000000
_symmetry_Int_Tables_number   18
_chemical_formula_structural
K0.5Li1.5Cd4Si1.5Ge0.5H22C29.5Fl0.5S8N20
_chemical_formula_sum
'K0.5 Li1.5 Cd4 Si1.5 Ge0.5 H22 C29.5 Fl0.5 S8 N20'
_cell_volume   1224.50836364
_cell_formula_units_Z   1
loop_
 _symmetry_equiv_pos_site_id
 _symmetry_equiv_pos_as_xyz
  1  'x, y, z'
  2  '-x, -y, z'
  3  'x+1/2, -y+1/2, -z'
  4  '-x+1/2, y+1/2, -z'
loop_
 _atom_site_type_symbol
 _atom_site_label
 _atom_site_symmetry_multiplicity
 _atom_site_fract_x
 _atom_site_fract_y
 _atom_site_fract_z
 _atom_site_occupancy
  Li+  Li0  2  0.00000000  0.00000000  0.60610000  0.75
  K+  K1  2  0.00000000  0.00000000  0.60610000  0.25
  Cd  Cd2  4  0.04982000  0.21988000  0.54907000  1.0
  H  H3  4  0.01490000  0.13220000  0.15360000  1.0
  H  H4  4  0.10040000  0.32060000  0.92980000  1.0
  H  H5  4  0.12840000  0.42440000  0.45310000  1.0
  H  H6  4  0.18440000  0.55760000  0.56830000  1.0
  H  H7  4  0.18670000  0.57360000  0.86990000  1.0
  H  H8  2  0.00000000  0.00000000  0.99740000  1.0
  C  C9  4  0.00970000  0.07820000  0.21720000  1.0
  C  C10  4  0.17320000  0.68140000  0.30750000  1.0
  C+  C11  4  0.22410000  0.77360000  0.73450000  0.375
  Si+  Si12  4  0.22410000  0.77360000  0.73450000  0.375
  Fl+  Fl13  4  0.22410000  0.77360000  0.73450000  0.125
  Ge+  Ge14  4  0.22410000  0.77360000  0.73450000  0.125
  C  C15  4  0.11700000  0.37010000  0.85640000  1.0
  C  C16  4  0.13370000  0.43010000  0.57890000  1.0
  C  C17  4  0.16540000  0.50960000  0.64450000  1.0
  C  C18  4  0.16850000  0.51730000  0.82200000  1.0
  C  C19  2  0.00000000  0.00000000  0.12410000  1.0
  C  C20  2  0.00000000  0.00000000  0.47950000  1.0
  S  S21  4  0.10244000  0.81590000  0.81940000  1.0
  S  S22  4  0.20539000  0.13403000  0.77380000  1.0
  N  N23  4  0.01180000  0.07930000  0.39650000  1.0
  N  N24  4  0.08900000  0.71550000  0.36310000  1.0
  N  N25  4  0.10930000  0.35850000  0.67730000  1.0
  N  N26  4  0.14690000  0.44810000  0.94110000  1.0
  N  N27  4  0.18950000  0.24420000  0.32200000  1.0
