# generated using pymatgen
data_Fr3K3LiZn4H33C16
_symmetry_space_group_name_H-M  'I 41 m d'
_cell_length_a   9.89300000
_cell_length_b   9.89300000
_cell_length_c   5.30000000
_cell_angle_alpha   90.00000000
_cell_angle_beta   90.00000000
_cell_angle_gamma   90.00000000
_symmetry_Int_Tables_number   109
_chemical_formula_structural   Fr3K3LiZn4H33C16
_chemical_formula_sum   'Fr3 K3 Li1 Zn4 H33 C16'
_cell_volume   518.71867970
_cell_formula_units_Z   1
loop_
 _symmetry_equiv_pos_site_id
 _symmetry_equiv_pos_as_xyz
  1  'x, y, z'
  2  '-y+1/2, x, z+3/4'
  3  '-x, -y, z'
  4  'y+1/2, -x, z+3/4'
  5  '-x, y, z'
  6  'y+1/2, x, z+3/4'
  7  'x, -y, z'
  8  '-y+1/2, -x, z+3/4'
  9  'x+1/2, y+1/2, z+1/2'
  10  '-y, x+1/2, z+1/4'
  11  '-x+1/2, -y+1/2, z+1/2'
  12  'y, -x+1/2, z+1/4'
  13  '-x+1/2, y+1/2, z+1/2'
  14  'y, x+1/2, z+1/4'
  15  'x+1/2, -y+1/2, z+1/2'
  16  '-y, -x+1/2, z+1/4'
loop_
 _atom_site_type_symbol
 _atom_site_label
 _atom_site_symmetry_multiplicity
 _atom_site_fract_x
 _atom_site_fract_y
 _atom_site_fract_z
 _atom_site_occupancy
  K+  K0  8  0.00000000  0.36800000  0.78360000  0.375
  H+  H1  8  0.00000000  0.36800000  0.78360000  0.125
  Li+  Li2  8  0.00000000  0.36800000  0.78360000  0.125
  Fr+  Fr3  8  0.00000000  0.36800000  0.78360000  0.375
  Zn  Zn4  4  0.00000000  0.00000000  0.00420000  1.0
  H  H5  16  0.08070000  0.22660000  0.11180000  1.0
  H  H6  16  0.08090000  0.24400000  0.66180000  1.0
  C  C7  8  0.00000000  0.19680000  0.01620000  1.0
  C  C8  8  0.00000000  0.26990000  0.75690000  1.0
