# generated using pymatgen
data_Lu4Ge2Pb0.5C1.5O14
_symmetry_space_group_name_H-M  'C 1 2/m 1'
_cell_length_a   6.76200000
_cell_length_b   8.83500000
_cell_length_c   4.71130000
_cell_angle_alpha   90.00000000
_cell_angle_beta   101.99000000
_cell_angle_gamma   90.00000000
_symmetry_Int_Tables_number   12
_chemical_formula_structural   Lu4Ge2Pb0.5C1.5O14
_chemical_formula_sum   'Lu4 Ge2 Pb0.5 C1.5 O14'
_cell_volume   275.32330767
_cell_formula_units_Z   1
loop_
 _symmetry_equiv_pos_site_id
 _symmetry_equiv_pos_as_xyz
  1  'x, y, z'
  2  '-x, -y, -z'
  3  '-x, y, -z'
  4  'x, -y, z'
  5  'x+1/2, y+1/2, z'
  6  '-x+1/2, -y+1/2, -z'
  7  '-x+1/2, y+1/2, -z'
  8  'x+1/2, -y+1/2, z'
loop_
 _atom_site_type_symbol
 _atom_site_label
 _atom_site_symmetry_multiplicity
 _atom_site_fract_x
 _atom_site_fract_y
 _atom_site_fract_z
 _atom_site_occupancy
  Lu  Lu0  4  0.00000000  0.30718000  0.00000000  1.0
  Ge+  Ge1  4  0.21960000  0.00000000  0.41210000  0.5
  Pb+  Pb2  4  0.21960000  0.00000000  0.41210000  0.125
  C+  C3  4  0.21960000  0.00000000  0.41210000  0.375
  O  O4  8  0.23670000  0.15100000  0.22000000  1.0
  O  O5  4  0.11680000  0.50000000  0.28440000  1.0
  O  O6  2  0.00000000  0.00000000  0.50000000  1.0
