# generated using pymatgen
data_K0.5Na0.5Li0.5Ga0.5B1.5H0.5W4O16
_symmetry_space_group_name_H-M  'P -3 c 1'
_cell_length_a   5.79000000
_cell_length_b   5.79000000
_cell_length_c   14.51500000
_cell_angle_alpha   90.00000000
_cell_angle_beta   90.00000000
_cell_angle_gamma   120.00000000
_symmetry_Int_Tables_number   165
_chemical_formula_structural   K0.5Na0.5Li0.5Ga0.5B1.5H0.5W4O16
_chemical_formula_sum   'K0.5 Na0.5 Li0.5 Ga0.5 B1.5 H0.5 W4 O16'
_cell_volume   421.40996330
_cell_formula_units_Z   1
loop_
 _symmetry_equiv_pos_site_id
 _symmetry_equiv_pos_as_xyz
  1  'x, y, z'
  2  '-x, -y, -z'
  3  '-y, x-y, z'
  4  'y, -x+y, -z'
  5  '-x+y, -x, z'
  6  'x-y, x, -z'
  7  'y, x, -z+1/2'
  8  '-y, -x, z+1/2'
  9  'x-y, -y, -z+1/2'
  10  '-x+y, y, z+1/2'
  11  '-x, -x+y, -z+1/2'
  12  'x, x-y, z+1/2'
loop_
 _atom_type_symbol
 _atom_type_oxidation_number
  K0+  0.0
  Na0+  0.0
  Li0+  0.0
  Ga0+  0.0
  B0+  0.0
  H0+  0.0
  W0+  0.0
  O0+  0.0
loop_
 _atom_site_type_symbol
 _atom_site_label
 _atom_site_symmetry_multiplicity
 _atom_site_fract_x
 _atom_site_fract_y
 _atom_site_fract_z
 _atom_site_occupancy
  Na0+  Na0  2  0.00000000  0.00000000  0.25000000  0.25
  H0+  H1  2  0.00000000  0.00000000  0.25000000  0.25
  Li0+  Li2  2  0.00000000  0.00000000  0.25000000  0.25
  K0+  K3  2  0.00000000  0.00000000  0.25000000  0.25
  Ga0+  Ga4  2  0.00000000  0.00000000  0.00000000  0.25
  B0+  B5  2  0.00000000  0.00000000  0.00000000  0.75
  W0+  W6  4  0.33333333  0.66666667  0.12394000  1.0
  O0+  O7  12  0.08400000  0.32800000  0.58430000  1.0
  O0+  O8  4  0.33333333  0.66666667  0.24800000  1.0
