# generated using pymatgen
data_Pr3.5Tm2.5H18
_symmetry_space_group_name_H-M  'P -3 c 1'
_cell_length_a   6.46620000
_cell_length_b   6.46620000
_cell_length_c   6.71700000
_cell_angle_alpha   90.00000000
_cell_angle_beta   90.00000000
_cell_angle_gamma   120.00000000
_symmetry_Int_Tables_number   165
_chemical_formula_structural   Pr3.5Tm2.5H18
_chemical_formula_sum   'Pr3.5 Tm2.5 H18'
_cell_volume   243.22277910
_cell_formula_units_Z   1
loop_
 _symmetry_equiv_pos_site_id
 _symmetry_equiv_pos_as_xyz
  1  'x, y, z'
  2  '-x, -y, -z'
  3  '-y, x-y, z'
  4  'y, -x+y, -z'
  5  '-x+y, -x, z'
  6  'x-y, x, -z'
  7  'y, x, -z+1/2'
  8  '-y, -x, z+1/2'
  9  'x-y, -y, -z+1/2'
  10  '-x+y, y, z+1/2'
  11  '-x, -x+y, -z+1/2'
  12  'x, x-y, z+1/2'
loop_
 _atom_type_symbol
 _atom_type_oxidation_number
  Pr0+  0.0
  Tm0+  0.0
  H0+  0.0
loop_
 _atom_site_type_symbol
 _atom_site_label
 _atom_site_symmetry_multiplicity
 _atom_site_fract_x
 _atom_site_fract_y
 _atom_site_fract_z
 _atom_site_occupancy
  Pr0+  Pr0  6  0.00000000  0.33333333  0.25000000
  0.5833333333333334
  Tm0+  Tm1  6  0.00000000  0.33333333  0.25000000
  0.4166666666666667
  H0+  H2  12  0.02800000  0.35600000  0.90400000  1.0
  H0+  H3  4  0.33333333  0.66666667  0.16700000  1.0
  H0+  H4  2  0.00000000  0.00000000  0.25000000  1.0
