# generated using pymatgen
data_Cs0.5Rb3K0.5Na2U12Mo0.5W0.5Sg1F60
_symmetry_space_group_name_H-M  'P -3 c 1'
_cell_length_a   9.83240000
_cell_length_b   9.83240000
_cell_length_c   12.96760000
_cell_angle_alpha   90.00000000
_cell_angle_beta   90.00000000
_cell_angle_gamma   120.00000000
_symmetry_Int_Tables_number   165
_chemical_formula_structural   Cs0.5Rb3K0.5Na2U12Mo0.5W0.5Sg1F60
_chemical_formula_sum   'Cs0.5 Rb3 K0.5 Na2 U12 Mo0.5 W0.5 Sg1 F60'
_cell_volume   1085.69868975
_cell_formula_units_Z   1
loop_
 _symmetry_equiv_pos_site_id
 _symmetry_equiv_pos_as_xyz
  1  'x, y, z'
  2  '-x, -y, -z'
  3  '-y, x-y, z'
  4  'y, -x+y, -z'
  5  '-x+y, -x, z'
  6  'x-y, x, -z'
  7  'y, x, -z+1/2'
  8  '-y, -x, z+1/2'
  9  'x-y, -y, -z+1/2'
  10  '-x+y, y, z+1/2'
  11  '-x, -x+y, -z+1/2'
  12  'x, x-y, z+1/2'
loop_
 _atom_site_type_symbol
 _atom_site_label
 _atom_site_symmetry_multiplicity
 _atom_site_fract_x
 _atom_site_fract_y
 _atom_site_fract_z
 _atom_site_occupancy
  Rb+  Rb0  4  0.33333333  0.66666667  0.33770000  0.75
  Cs+  Cs1  4  0.33333333  0.66666667  0.33770000  0.125
  K+  K2  4  0.33333333  0.66666667  0.33770000  0.125
  Na  Na3  2  0.00000000  0.00000000  0.00000000  1.0
  U  U4  12  0.07572000  0.39969000  0.60209000  1.0
  W+  W5  2  0.00000000  0.00000000  0.25000000  0.25
  Mo+  Mo6  2  0.00000000  0.00000000  0.25000000  0.25
  Sg+  Sg7  2  0.00000000  0.00000000  0.25000000  0.5
  F  F8  12  0.08360000  0.18050000  0.66330000  1.0
  F  F9  12  0.11600000  0.30660000  0.98200000  1.0
  F  F10  12  0.11950000  0.53350000  0.44840000  1.0
  F  F11  12  0.13140000  0.43450000  0.78370000  1.0
  F  F12  12  0.17120000  0.51170000  0.13760000  1.0
