# generated using pymatgen
data_La6At0.16666667Br0.33333333Cl3.5F14
_symmetry_space_group_name_H-M  'P -3 c 1'
_cell_length_a   7.19000000
_cell_length_b   7.19000000
_cell_length_c   7.36700000
_cell_angle_alpha   90.00000000
_cell_angle_beta   90.00000000
_cell_angle_gamma   120.00000000
_symmetry_Int_Tables_number   165
_chemical_formula_structural   La6At0.16666667Br0.33333333Cl3.5F14
_chemical_formula_sum   'La6 At0.16666667 Br0.33333333 Cl3.5 F14'
_cell_volume   329.82159100
_cell_formula_units_Z   1
loop_
 _symmetry_equiv_pos_site_id
 _symmetry_equiv_pos_as_xyz
  1  'x, y, z'
  2  '-x, -y, -z'
  3  '-y, x-y, z'
  4  'y, -x+y, -z'
  5  '-x+y, -x, z'
  6  'x-y, x, -z'
  7  'y, x, -z+1/2'
  8  '-y, -x, z+1/2'
  9  'x-y, -y, -z+1/2'
  10  '-x+y, y, z+1/2'
  11  '-x, -x+y, -z+1/2'
  12  'x, x-y, z+1/2'
loop_
 _atom_site_type_symbol
 _atom_site_label
 _atom_site_symmetry_multiplicity
 _atom_site_fract_x
 _atom_site_fract_y
 _atom_site_fract_z
 _atom_site_occupancy
  La  La0  6  0.00000000  0.34130000  0.75000000  1
  Cl+  Cl1  4  0.33333333  0.66666667  0.18250000  0.875
  At+  At2  4  0.33333333  0.66666667  0.18250000
  0.041666666666666664
  Br+  Br3  4  0.33333333  0.66666667  0.18250000
  0.08333333333333333
  F  F4  12  0.06230000  0.37580000  0.41870000  1
  F  F5  2  0.00000000  0.00000000  0.25000000  1
