# generated using pymatgen
data_Li2Mn2V2I1.5F10.5
_symmetry_space_group_name_H-M  'P 42 n m'
_cell_length_a   4.73500000
_cell_length_b   4.73500000
_cell_length_c   9.41000000
_cell_angle_alpha   90.00000000
_cell_angle_beta   90.00000000
_cell_angle_gamma   90.00000000
_symmetry_Int_Tables_number   102
_chemical_formula_structural   Li2Mn2V2I1.5F10.5
_chemical_formula_sum   'Li2 Mn2 V2 I1.5 F10.5'
_cell_volume   210.97431725
_cell_formula_units_Z   1
loop_
 _symmetry_equiv_pos_site_id
 _symmetry_equiv_pos_as_xyz
  1  'x, y, z'
  2  '-y+1/2, x+1/2, z+1/2'
  3  '-x, -y, z'
  4  'y+1/2, -x+1/2, z+1/2'
  5  '-x+1/2, y+1/2, z+1/2'
  6  'y, x, z'
  7  'x+1/2, -y+1/2, z+1/2'
  8  '-y, -x, z'
loop_
 _atom_site_type_symbol
 _atom_site_label
 _atom_site_symmetry_multiplicity
 _atom_site_fract_x
 _atom_site_fract_y
 _atom_site_fract_z
 _atom_site_occupancy
  Li  Li0  2  0.00000000  0.00000000  0.33700000  1.0
  Mn  Mn1  2  0.00000000  0.00000000  0.00000000  1.0
  V  V2  2  0.00000000  0.00000000  0.66540000  1.0
  I+  I3  4  0.19380000  0.80620000  0.82080000  0.375
  F+  F4  4  0.19380000  0.80620000  0.82080000  0.625
  F  F5  4  0.18950000  0.81050000  0.50900000  1.0
  F  F6  4  0.21230000  0.78770000  0.16690000  1.0
