# generated using pymatgen
data_K6Sg0.25W1.75O16
_symmetry_space_group_name_H-M  'I -4 2 m'
_cell_length_a   6.69400000
_cell_length_b   6.69400000
_cell_length_c   7.57360000
_cell_angle_alpha   90.00000000
_cell_angle_beta   90.00000000
_cell_angle_gamma   90.00000000
_symmetry_Int_Tables_number   121
_chemical_formula_structural   K6Sg0.25W1.75O16
_chemical_formula_sum   'K6 Sg0.25 W1.75 O16'
_cell_volume   339.37025921
_cell_formula_units_Z   1
loop_
 _symmetry_equiv_pos_site_id
 _symmetry_equiv_pos_as_xyz
  1  'x, y, z'
  2  'y, -x, -z'
  3  '-x, -y, z'
  4  '-y, x, -z'
  5  'x, -y, -z'
  6  'y, x, z'
  7  '-x, y, -z'
  8  '-y, -x, z'
  9  'x+1/2, y+1/2, z+1/2'
  10  'y+1/2, -x+1/2, -z+1/2'
  11  '-x+1/2, -y+1/2, z+1/2'
  12  '-y+1/2, x+1/2, -z+1/2'
  13  'x+1/2, -y+1/2, -z+1/2'
  14  'y+1/2, x+1/2, z+1/2'
  15  '-x+1/2, y+1/2, -z+1/2'
  16  '-y+1/2, -x+1/2, z+1/2'
loop_
 _atom_site_type_symbol
 _atom_site_label
 _atom_site_symmetry_multiplicity
 _atom_site_fract_x
 _atom_site_fract_y
 _atom_site_fract_z
 _atom_site_occupancy
  K  K0  4  0.00000000  0.50000000  0.25000000  1.0
  K  K1  2  0.00000000  0.00000000  0.50000000  1.0
  Sg+  Sg2  2  0.00000000  0.00000000  0.00000000  0.125
  W+  W3  2  0.00000000  0.00000000  0.00000000  0.875
  O  O4  8  0.13483000  0.13483000  0.18250000  1.0
  O  O5  8  0.20661000  0.20661000  0.01310000  1.0
