# generated using pymatgen
data_Sn0.33333333H3C24Fl2.66666667At1.33333333N6F25.66666667
_symmetry_space_group_name_H-M  'P 32'
_cell_length_a   12.43900000
_cell_length_b   12.43900000
_cell_length_c   5.59900000
_cell_angle_alpha   90.00000000
_cell_angle_beta   90.00000000
_cell_angle_gamma   120.00000000
_symmetry_Int_Tables_number   145
_chemical_formula_structural
Sn0.33333333H3C24Fl2.66666667At1.33333333N6F25.66666667
_chemical_formula_sum
'Sn0.33333333 H3 C24 Fl2.66666667 At1.33333333 N6 F25.66666667'
_cell_volume   750.26041825
_cell_formula_units_Z   1
loop_
 _symmetry_equiv_pos_site_id
 _symmetry_equiv_pos_as_xyz
  1  'x, y, z'
  2  '-y, x-y, z+2/3'
  3  '-x+y, -x, z+1/3'
loop_
 _atom_site_type_symbol
 _atom_site_label
 _atom_site_symmetry_multiplicity
 _atom_site_fract_x
 _atom_site_fract_y
 _atom_site_fract_z
 _atom_site_occupancy
  H  H0  3  0.54700000  0.28700000  0.38000000  1.0
  C  C1  3  0.43380000  0.05760000  0.10640000  1.0
  Sn+  Sn2  3  0.33100000  0.02680000  0.26450000
  0.1111111111111111
  Fl+  Fl3  3  0.33100000  0.02680000  0.26450000
  0.8888888888888888
  C  C4  3  0.02000000  0.46770000  0.58716667  1.0
  C  C5  3  0.07000000  0.21040000  0.15006667  1.0
  C  C6  3  0.07310000  0.28420000  0.96386667  1.0
  C  C7  3  0.11390000  0.59570000  0.68856667  1.0
  C  C8  3  0.18820000  0.03460000  0.63750000  1.0
  C  C9  3  0.30400000  0.13470000  0.60520000  1.0
  C  C10  3  0.37410000  0.13030000  0.41510000  1.0
  N  N11  3  0.49200000  0.21300000  0.34400000  1.0
  N  N12  3  0.52760000  0.16910000  0.15760000  1.0
  F+  F13  3  0.11620000  0.03010000  0.81730000  0.5555555555555556
  At+  At14  3  0.11620000  0.03010000  0.81730000
  0.4444444444444444
  F  F15  3  0.02740000  0.83610000  0.52570000  1.0
  F  F16  3  0.05550000  0.64650000  0.79336667  1.0
  F  F17  3  0.08550000  0.42740000  0.46296667  1.0
  F  F18  3  0.16270000  0.82660000  0.15510000  1.0
  F  F19  3  0.18470000  0.66990000  0.51586667  1.0
  F  F20  3  0.18700000  0.58440000  0.84556667  1.0
  F  F21  3  0.35020000  0.23090000  0.75660000  1.0
  F  F22  3  0.51480000  0.46180000  0.09943333  1.0
