# generated using pymatgen
data_Si1.75H48Pb0.75C51Fl0.5S3N12
_symmetry_space_group_name_H-M  'P 32'
_cell_length_a   15.64950000
_cell_length_b   15.64950000
_cell_length_c   5.93350000
_cell_angle_alpha   90.00000000
_cell_angle_beta   90.00000000
_cell_angle_gamma   120.00000000
_symmetry_Int_Tables_number   145
_chemical_formula_structural   Si1.75H48Pb0.75C51Fl0.5S3N12
_chemical_formula_sum   'Si1.75 H48 Pb0.75 C51 Fl0.5 S3 N12'
_cell_volume   1258.46896893
_cell_formula_units_Z   1
loop_
 _symmetry_equiv_pos_site_id
 _symmetry_equiv_pos_as_xyz
  1  'x, y, z'
  2  '-y, x-y, z+2/3'
  3  '-x+y, -x, z+1/3'
loop_
 _atom_site_type_symbol
 _atom_site_label
 _atom_site_symmetry_multiplicity
 _atom_site_fract_x
 _atom_site_fract_y
 _atom_site_fract_z
 _atom_site_occupancy
  H  H0  3  0.05280000  0.14570000  0.51453333  1.0
  H  H1  3  0.06200000  0.79940000  0.57156667  1.0
  H  H2  3  0.07300000  0.68700000  0.37766667  1.0
  H  H3  3  0.07860000  0.55270000  0.19606667  1.0
  H  H4  3  0.13250000  0.49850000  0.89086667  1.0
  H  H5  3  0.17610000  0.37210000  0.57073333  1.0
  H  H6  3  0.19190000  0.12790000  0.87216667  1.0
  H  H7  3  0.21770000  0.60480000  0.59466667  1.0
  H  H8  3  0.23310000  0.48290000  0.26863333  1.0
  H  H9  3  0.32640000  0.28230000  0.63806667  1.0
  H  H10  3  0.38700000  0.07980000  0.67703333  1.0
  H  H11  3  0.43700000  0.40000000  0.44866667  1.0
  H  H12  3  0.45320000  0.27890000  0.96566667  1.0
  H  H13  3  0.45750000  0.03290000  0.96083333  1.0
  H  H14  3  0.47990000  0.16890000  0.36613333  1.0
  H  H15  3  0.57240000  0.35350000  0.68286667  1.0
  C  C16  3  0.01250000  0.14800000  0.39773333  1.0
  C  C17  3  0.04900000  0.19690000  0.19873333  1.0
  C  C18  3  0.10830000  0.84900000  0.47366667  1.0
  C  C19  3  0.11320000  0.59650000  0.07576667  1.0
  C  C20  3  0.13220000  0.69420000  0.08086667  1.0
  C  C21  3  0.14540000  0.56470000  0.89446667  1.0
  C  C22  3  0.18310000  0.75780000  0.90256667  1.0
  C  C23  3  0.19240000  0.09120000  0.74516667  1.0
  C  C24  3  0.19600000  0.62760000  0.71836667  1.0
  C  C25  3  0.21480000  0.72360000  0.72286667  1.0
  C  C26  3  0.24870000  0.13380000  0.55686667  1.0
  C  C27  3  0.31760000  0.23630000  0.52346667  1.0
  C  C28  3  0.45460000  0.09800000  0.66733333  1.0
  C  C29  3  0.49620000  0.07040000  0.83623333  1.0
  C  C30  3  0.50120000  0.34690000  0.97446667  1.0
  C  C31  3  0.50230000  0.40450000  0.15626667  1.0
  C  C32  3  0.57220000  0.39180000  0.80696667  1.0
  Si+  Si33  3  0.50980000  0.15190000  0.48393333
  0.5833333333333334
  Fl+  Fl34  3  0.50980000  0.15190000  0.48393333
  0.16666666666666666
  Pb+  Pb35  3  0.50980000  0.15190000  0.48393333  0.25
  S  S36  3  0.22947000  0.04507000  0.35590667  1.0
  N  N37  3  0.09640000  0.72500000  0.25796667  1.0
  N  N38  3  0.13414000  0.82349000  0.29226667  1.0
  N  N39  3  0.36761000  0.26676000  0.33976667  1.0
  N  N40  3  0.42860000  0.36610000  0.32216667  1.0
