# generated using pymatgen
data_Fr0.33333333K0.33333333Li0.33333333H53C36O9
_symmetry_space_group_name_H-M  'P 32'
_cell_length_a   14.75600000
_cell_length_b   14.75600000
_cell_length_c   4.81900000
_cell_angle_alpha   90.00000000
_cell_angle_beta   90.00000000
_cell_angle_gamma   120.00000000
_symmetry_Int_Tables_number   145
_chemical_formula_structural
Fr0.33333333K0.33333333Li0.33333333H53C36O9
_chemical_formula_sum
'Fr0.33333333 K0.33333333 Li0.33333333 H53 C36 O9'
_cell_volume   908.70904543
_cell_formula_units_Z   1
loop_
 _symmetry_equiv_pos_site_id
 _symmetry_equiv_pos_as_xyz
  1  'x, y, z'
  2  '-y, x-y, z+2/3'
  3  '-x+y, -x, z+1/3'
loop_
 _atom_site_type_symbol
 _atom_site_label
 _atom_site_symmetry_multiplicity
 _atom_site_fract_x
 _atom_site_fract_y
 _atom_site_fract_z
 _atom_site_occupancy
  Li+  Li0  3  0.50570000  0.43770000  0.51583333
  0.1111111111111111
  Fr+  Fr1  3  0.50570000  0.43770000  0.51583333
  0.1111111111111111
  H+  H2  3  0.50570000  0.43770000  0.51583333  0.6666666666666666
  K+  K3  3  0.50570000  0.43770000  0.51583333  0.1111111111111111
  H  H4  3  0.02750000  0.61160000  0.38726667  1.0
  H  H5  3  0.03900000  0.13800000  0.65766667  1.0
  H  H6  3  0.04820000  0.80630000  0.32440000  1.0
  H  H7  3  0.06570000  0.27640000  0.80646667  1.0
  H  H8  3  0.07880000  0.62810000  0.68886667  1.0
  H  H9  3  0.08470000  0.49330000  0.27426667  1.0
  H  H10  3  0.11360000  0.10660000  0.25366667  1.0
  H  H11  3  0.14120000  0.83190000  0.53710000  1.0
  H  H12  3  0.15180000  0.66570000  0.41906667  1.0
  H  H13  3  0.15430000  0.43210000  0.60846667  1.0
  H  H14  3  0.15970000  0.51740000  0.82296667  1.0
  H  H15  3  0.21900000  0.06610000  0.59120000  1.0
  H  H16  3  0.22970000  0.55400000  0.54756667  1.0
  H  H17  3  0.29990000  0.10510000  0.33540000  1.0
  H  H18  3  0.37300000  0.19970000  0.73700000  1.0
  H  H19  3  0.50270000  0.30210000  0.06420000  1.0
  H  H20  3  0.59270000  0.23310000  0.29240000  1.0
  C  C21  3  0.04488000  0.21852000  0.94396667  1.0
  C  C22  3  0.07610000  0.50490000  0.47466667  1.0
  C  C23  3  0.08430000  0.61220000  0.49426667  1.0
  C  C24  3  0.10061000  0.86080000  0.44850000  1.0
  C  C25  3  0.16230000  0.50180000  0.62636667  1.0
  C  C26  3  0.25404000  0.04418000  0.45330000  1.0
  C  C27  3  0.39069000  0.07168000  0.77030000  1.0
  C  C28  3  0.41106000  0.17223000  0.82880000  1.0
  C  C29  3  0.44815000  0.03070000  0.89430000  1.0
  C  C30  3  0.48808000  0.23300000  0.02380000  1.0
  C  C31  3  0.52308000  0.09410000  0.09070000  1.0
  C  C32  3  0.54203000  0.19290000  0.15560000  1.0
  O  O33  3  0.00472000  0.12209000  0.79926667  1.0
  O  O34  3  0.04782000  0.88452000  0.65720000  1.0
  O  O35  3  0.31374000  0.00553000  0.58970000  1.0
