# generated using pymatgen
data_Si4Te7Lv0.5Se0.5
_symmetry_space_group_name_H-M  'P 41 21 2'
_cell_length_a   4.59900000
_cell_length_b   4.59900000
_cell_length_c   6.13000000
_cell_angle_alpha   90.00000000
_cell_angle_beta   90.00000000
_cell_angle_gamma   90.00000000
_symmetry_Int_Tables_number   92
_chemical_formula_structural   Si4Te7Lv0.5Se0.5
_chemical_formula_sum   'Si4 Te7 Lv0.5 Se0.5'
_cell_volume   129.65441013
_cell_formula_units_Z   1
loop_
 _symmetry_equiv_pos_site_id
 _symmetry_equiv_pos_as_xyz
  1  'x, y, z'
  2  '-y+1/2, x+1/2, z+1/4'
  3  '-x, -y, z+1/2'
  4  'y+1/2, -x+1/2, z+3/4'
  5  'x+1/2, -y+1/2, -z+3/4'
  6  '-y, -x, -z+1/2'
  7  '-x+1/2, y+1/2, -z+1/4'
  8  'y, x, -z'
loop_
 _atom_site_type_symbol
 _atom_site_label
 _atom_site_symmetry_multiplicity
 _atom_site_fract_x
 _atom_site_fract_y
 _atom_site_fract_z
 _atom_site_occupancy
  Si  Si0  4  0.16040000  0.83960000  0.25000000  1
  Te+  Te1  8  0.18000000  0.22380000  0.78360000  0.875
  Lv+  Lv2  8  0.18000000  0.22380000  0.78360000  0.0625
  Se+  Se3  8  0.18000000  0.22380000  0.78360000  0.0625
