# generated using pymatgen
data_Sr4PoTe3H8C8Se2(SO4)2
_symmetry_space_group_name_H-M  'P 41 21 2'
_cell_length_a   7.09951000
_cell_length_b   7.09951000
_cell_length_c   10.04048000
_cell_angle_alpha   90.00000000
_cell_angle_beta   90.00000000
_cell_angle_gamma   90.00000000
_symmetry_Int_Tables_number   92
_chemical_formula_structural   Sr4PoTe3H8C8Se2(SO4)2
_chemical_formula_sum   'Sr4 Po1 Te3 H8 C8 Se2 S2 O8'
_cell_volume   506.07073755
_cell_formula_units_Z   1
loop_
 _symmetry_equiv_pos_site_id
 _symmetry_equiv_pos_as_xyz
  1  'x, y, z'
  2  '-y+1/2, x+1/2, z+1/4'
  3  '-x, -y, z+1/2'
  4  'y+1/2, -x+1/2, z+3/4'
  5  'x+1/2, -y+1/2, -z+3/4'
  6  '-y, -x, -z+1/2'
  7  '-x+1/2, y+1/2, -z+1/4'
  8  'y, x, -z'
loop_
 _atom_site_type_symbol
 _atom_site_label
 _atom_site_symmetry_multiplicity
 _atom_site_fract_x
 _atom_site_fract_y
 _atom_site_fract_z
 _atom_site_occupancy
  Sr  Sr0  4  0.23646000  0.76354000  0.75000000  1.0
  H  H1  8  0.12770000  0.80470000  0.38330000  1.0
  Se+  Se2  8  0.12180000  0.20070000  0.22600000  0.25
  S+  S3  8  0.12180000  0.20070000  0.22600000  0.25
  Te+  Te4  8  0.12180000  0.20070000  0.22600000  0.375
  Po+  Po5  8  0.12180000  0.20070000  0.22600000  0.125
  C  C6  8  0.21230000  0.77680000  0.05630000  1.0
  O  O7  8  0.08660000  0.70700000  0.99160000  1.0
