# generated using pymatgen
data_KNa2Li4PoP8HPb7FlSeSO29
_symmetry_space_group_name_H-M  'P n a 21'
_cell_length_a   7.94500000
_cell_length_b   18.46000000
_cell_length_c   4.92800000
_cell_angle_alpha   90.00000000
_cell_angle_beta   90.00000000
_cell_angle_gamma   90.00000000
_symmetry_Int_Tables_number   33
_chemical_formula_structural   KNa2Li4PoP8HPb7FlSeSO29
_chemical_formula_sum   'K1 Na2 Li4 Po1 P8 H1 Pb7 Fl1 Se1 S1 O29'
_cell_volume   722.76364160
_cell_formula_units_Z   1
loop_
 _symmetry_equiv_pos_site_id
 _symmetry_equiv_pos_as_xyz
  1  'x, y, z'
  2  '-x, -y, z+1/2'
  3  '-x+1/2, y+1/2, z+1/2'
  4  'x+1/2, -y+1/2, z'
loop_
 _atom_type_symbol
 _atom_type_oxidation_number
  K0+  0.0
  Na0+  0.0
  Li0+  0.0
  Po0+  0.0
  P0+  0.0
  H0+  0.0
  Pb0+  0.0
  Se0+  0.0
  S0+  0.0
  O0+  0.0
  Fl0+  0.0
loop_
 _atom_site_type_symbol
 _atom_site_label
 _atom_site_symmetry_multiplicity
 _atom_site_fract_x
 _atom_site_fract_y
 _atom_site_fract_z
 _atom_site_occupancy
  Li0+  Li0  4  0.01100000  0.94500000  0.94300000  1.0
  Na0+  Na1  4  0.18600000  0.35000000  0.43100000  0.5
  H0+  H2  4  0.18600000  0.35000000  0.43100000  0.25
  K0+  K3  4  0.18600000  0.35000000  0.43100000  0.25
  P0+  P4  4  0.21270000  0.67970000  0.94340000  1.0
  P0+  P5  4  0.23360000  0.92840000  0.44620000  1.0
  Pb0+  Pb6  4  0.02959000  0.77163000  0.48180000  1.0
  Pb0+  Pb7  4  0.17415000  0.55374000  0.50000000  0.75
  Fl0+  Fl8  4  0.17415000  0.55374000  0.50000000  0.25
  O0+  O9  4  0.23100000  0.75620000  0.82600000  0.25
  S0+  S10  4  0.23100000  0.75620000  0.82600000  0.25
  Po0+  Po11  4  0.23100000  0.75620000  0.82600000  0.25
  Se0+  Se12  4  0.23100000  0.75620000  0.82600000  0.25
  O0+  O13  4  0.05600000  0.64670000  0.81200000  1.0
  O0+  O14  4  0.08200000  0.96540000  0.31900000  1.0
  O0+  O15  4  0.10600000  0.47230000  0.86400000  1.0
  O0+  O16  4  0.14000000  0.13370000  0.37000000  1.0
  O0+  O17  4  0.19300000  0.68410000  0.24700000  1.0
  O0+  O18  4  0.21500000  0.92690000  0.76300000  1.0
  O0+  O19  4  0.24600000  0.35170000  0.84100000  1.0
