# generated using pymatgen
data_Na9Li3Te2H36(S2O21)2
_symmetry_space_group_name_H-M  'R 3 c :H'
_cell_length_a   8.45700000
_cell_length_b   8.45700000
_cell_length_c   30.33000000
_cell_angle_alpha   90.00000000
_cell_angle_beta   90.00000000
_cell_angle_gamma   120.00000000
_symmetry_Int_Tables_number   161
_chemical_formula_structural   Na9Li3Te2H36(S2O21)2
_chemical_formula_sum   'Na18 Li6 Te4.0 H72 S8 O84'
_cell_volume   1878.60599183
_cell_formula_units_Z   2
loop_
 _symmetry_equiv_pos_site_id
 _symmetry_equiv_pos_as_xyz
  1  'x, y, z'
  2  '-y, x-y, z'
  3  '-x+y, -x, z'
  4  '-y+1/3, -x+2/3, z+1/6'
  5  '-x+y+1/3, y+2/3, z+1/6'
  6  'x+1/3, x-y+2/3, z+1/6'
  7  'x+2/3, y+1/3, z+1/3'
  8  '-y+2/3, x-y+1/3, z+1/3'
  9  '-x+y+2/3, -x+1/3, z+1/3'
  10  '-y, -x, z+1/2'
  11  '-x+y, y, z+1/2'
  12  'x, x-y, z+1/2'
  13  'x+1/3, y+2/3, z+2/3'
  14  '-y+1/3, x-y+2/3, z+2/3'
  15  '-x+y+1/3, -x+2/3, z+2/3'
  16  '-y+2/3, -x+1/3, z+5/6'
  17  '-x+y+2/3, y+1/3, z+5/6'
  18  'x+2/3, x-y+1/3, z+5/6'
loop_
 _atom_site_type_symbol
 _atom_site_label
 _atom_site_symmetry_multiplicity
 _atom_site_fract_x
 _atom_site_fract_y
 _atom_site_fract_z
 _atom_site_occupancy
  Na  Na0  18  0.03190000  0.26720000  0.56061000  1.0
  Li  Li1  6  0.00000000  0.00000000  0.32056667  1.0
  H  H2  18  0.01633333  0.34866667  0.76766667  1.0
  H  H3  18  0.04766667  0.27433333  0.35133333  1.0
  H  H4  18  0.09600000  0.35400000  0.99010000  1.0
  H  H5  18  0.16033333  0.46366667  0.79346667  1.0
  S+  S6  6  0.00000000  0.00000000  0.45905333  0.3333333333333333
  Te+  Te7  6  0.00000000  0.00000000  0.45905333
  0.6666666666666666
  S  S8  6  0.00000000  0.00000000  0.20967667  1.0
  O  O9  18  0.05786667  0.18583333  0.94250333  1.0
  O  O10  18  0.12503333  0.42816667  0.76834667  1.0
  O  O11  18  0.14540000  0.42980000  0.00960000  1.0
  O  O12  18  0.17683333  0.02886667  0.19309667  1.0
  O  O13  6  0.00000000  0.00000000  0.00783333  1.0
  O  O14  6  0.00000000  0.00000000  0.25726667  1.0
