# generated using pymatgen
data_Fe6Mc4.5Bi0.5As0.5P0.5O18
_symmetry_space_group_name_H-M  'R 3 c :H'
_cell_length_a   5.57174000
_cell_length_b   5.57174000
_cell_length_c   13.83512000
_cell_angle_alpha   90.00000000
_cell_angle_beta   90.00000000
_cell_angle_gamma   120.00000000
_symmetry_Int_Tables_number   161
_chemical_formula_structural   Fe6Mc4.5Bi0.5As0.5P0.5O18
_chemical_formula_sum   'Fe6 Mc4.5 Bi0.5 As0.5 P0.5 O18'
_cell_volume   371.95915004
_cell_formula_units_Z   1
loop_
 _symmetry_equiv_pos_site_id
 _symmetry_equiv_pos_as_xyz
  1  'x, y, z'
  2  '-y, x-y, z'
  3  '-x+y, -x, z'
  4  '-y+1/3, -x+2/3, z+1/6'
  5  '-x+y+1/3, y+2/3, z+1/6'
  6  'x+1/3, x-y+2/3, z+1/6'
  7  'x+2/3, y+1/3, z+1/3'
  8  '-y+2/3, x-y+1/3, z+1/3'
  9  '-x+y+2/3, -x+1/3, z+1/3'
  10  '-y, -x, z+1/2'
  11  '-x+y, y, z+1/2'
  12  'x, x-y, z+1/2'
  13  'x+1/3, y+2/3, z+2/3'
  14  '-y+1/3, x-y+2/3, z+2/3'
  15  '-x+y+1/3, -x+2/3, z+2/3'
  16  '-y+2/3, -x+1/3, z+5/6'
  17  '-x+y+2/3, y+1/3, z+5/6'
  18  'x+2/3, x-y+1/3, z+5/6'
loop_
 _atom_site_type_symbol
 _atom_site_label
 _atom_site_symmetry_multiplicity
 _atom_site_fract_x
 _atom_site_fract_y
 _atom_site_fract_z
 _atom_site_occupancy
  Fe  Fe0  6  0.00000000  0.00000000  0.22050000  1.0
  Mc+  Mc1  6  0.00000000  0.00000000  0.00000000  0.75
  Bi+  Bi2  6  0.00000000  0.00000000  0.00000000
  0.08333333333333333
  As+  As3  6  0.00000000  0.00000000  0.00000000
  0.08333333333333333
  P+  P4  6  0.00000000  0.00000000  0.00000000  0.08333333333333333
  O  O5  18  0.11246667  0.35193333  0.28493333  1.0
