# generated using pymatgen
data_SrCa17(BO2)36
_symmetry_space_group_name_H-M  'R 3 c :H'
_cell_length_a   12.55170000
_cell_length_b   12.55170000
_cell_length_c   12.98500000
_cell_angle_alpha   90.00000000
_cell_angle_beta   90.00000000
_cell_angle_gamma   120.00000000
_symmetry_Int_Tables_number   161
_chemical_formula_structural   SrCa17(BO2)36
_chemical_formula_sum   'Sr1 Ca17 B36 O72'
_cell_volume   1771.64901373
_cell_formula_units_Z   1
loop_
 _symmetry_equiv_pos_site_id
 _symmetry_equiv_pos_as_xyz
  1  'x, y, z'
  2  '-y, x-y, z'
  3  '-x+y, -x, z'
  4  '-y, -x, z+1/2'
  5  '-x+y, y, z+1/2'
  6  'x, x-y, z+1/2'
  7  'x+2/3, y+1/3, z+1/3'
  8  '-y+2/3, x-y+1/3, z+1/3'
  9  '-x+y+2/3, -x+1/3, z+1/3'
  10  '-y+2/3, -x+1/3, z+5/6'
  11  '-x+y+2/3, y+1/3, z+5/6'
  12  'x+2/3, x-y+1/3, z+5/6'
  13  'x+1/3, y+2/3, z+2/3'
  14  '-y+1/3, x-y+2/3, z+2/3'
  15  '-x+y+1/3, -x+2/3, z+2/3'
  16  '-y+1/3, -x+2/3, z+1/6'
  17  '-x+y+1/3, y+2/3, z+1/6'
  18  'x+1/3, x-y+2/3, z+1/6'
loop_
 _atom_site_type_symbol
 _atom_site_label
 _atom_site_symmetry_multiplicity
 _atom_site_fract_x
 _atom_site_fract_y
 _atom_site_fract_z
 _atom_site_occupancy
  Ca+  Ca0  18  0.02538367  0.33627733  0.21325633
  0.9444444444444444
  Sr+  Sr1  18  0.02538367  0.33627733  0.21325633
  0.05555555555555555
  B  B2  18  0.02280300  0.12333600  0.74255700  1.0
  B  B3  18  0.04274000  0.12931000  0.00213000  1.0
  O  O4  18  0.04626000  0.23694000  0.73542000  1.0
  O  O5  18  0.08329033  0.50279967  0.67600967  1.0
  O  O6  18  0.11748700  0.02043300  0.24381300  1.0
  O  O7  18  0.12292600  0.04112300  0.50102300  1.0
