# generated using pymatgen
data_Fr3K3H18C12(I3N2)4
_symmetry_space_group_name_H-M  'R 3 c :R'
_cell_length_a   9.84100000
_cell_length_b   9.84100000
_cell_length_c   9.84100000
_cell_angle_alpha   81.33000000
_cell_angle_beta   81.33000000
_cell_angle_gamma   81.33000000
_symmetry_Int_Tables_number   161
_chemical_formula_structural   Fr3K3H18C12(I3N2)4
_chemical_formula_sum   'Fr3 K3 H18 C12 I12 N8'
_cell_volume   923.37165977
_cell_formula_units_Z   1
loop_
 _symmetry_equiv_pos_site_id
 _symmetry_equiv_pos_as_xyz
  1  'x, y, z'
  2  'y, z, x'
  3  'z, x, y'
  4  'x+1/2, z+1/2, y+1/2'
  5  'y+1/2, x+1/2, z+1/2'
  6  'z+1/2, y+1/2, x+1/2'
loop_
 _atom_site_type_symbol
 _atom_site_label
 _atom_site_symmetry_multiplicity
 _atom_site_fract_x
 _atom_site_fract_y
 _atom_site_fract_z
 _atom_site_occupancy
  Fr+  Fr0  6  0.01790000  0.80680000  0.95730000  0.5
  K+  K1  6  0.01790000  0.80680000  0.95730000  0.5
  H  H2  6  0.01190000  0.66180000  0.91150000  1.0
  H  H3  6  0.09040000  0.28850000  0.39540000  1.0
  H  H4  6  0.15070000  0.43530000  0.18720000  1.0
  C  C5  6  0.18620000  0.24640000  0.39270000  1.0
  C  C6  6  0.25720000  0.46780000  0.40740000  1.0
  I  I7  6  0.12654000  0.31235000  0.72114000  1.0
  I  I8  6  0.30187000  0.97944000  0.97417000  1.0
  N  N9  6  0.26100000  0.32170000  0.47280000  1.0
  N  N10  2  0.25000000  0.25000000  0.25000000  1.0
