# generated using pymatgen
data_Zn1.5Cd0.5B16H16N8
_symmetry_space_group_name_H-M  'P 42/n m c :2'
_cell_length_a   7.50300000
_cell_length_b   7.50300000
_cell_length_c   10.78400000
_cell_angle_alpha   90.00000000
_cell_angle_beta   90.00000000
_cell_angle_gamma   90.00000000
_symmetry_Int_Tables_number   137
_chemical_formula_structural   Zn1.5Cd0.5B16H16N8
_chemical_formula_sum   'Zn1.5 Cd0.5 B16 H16 N8'
_cell_volume   607.08537706
_cell_formula_units_Z   1
loop_
 _symmetry_equiv_pos_site_id
 _symmetry_equiv_pos_as_xyz
  1  'x, y, z'
  2  '-y+1/2, x, z+1/2'
  3  '-x+1/2, -y+1/2, z'
  4  'y, -x+1/2, z+1/2'
  5  'x+1/2, -y, -z'
  6  '-y, -x, -z+1/2'
  7  '-x, y+1/2, -z'
  8  'y+1/2, x+1/2, -z+1/2'
  9  '-x, -y, -z'
  10  'y+1/2, -x, -z+1/2'
  11  'x+1/2, y+1/2, -z'
  12  '-y, x+1/2, -z+1/2'
  13  '-x+1/2, y, z'
  14  'y, x, z+1/2'
  15  'x, -y+1/2, z'
  16  '-y+1/2, -x+1/2, z+1/2'
loop_
 _atom_site_type_symbol
 _atom_site_label
 _atom_site_symmetry_multiplicity
 _atom_site_fract_x
 _atom_site_fract_y
 _atom_site_fract_z
 _atom_site_occupancy
  Cd0+  Cd0  2  0.25000000  0.75000000  0.75000000  0.25
  Zn0+  Zn1  2  0.25000000  0.75000000  0.75000000  0.75
  B  B2  8  0.08130000  0.75000000  0.28300000  1.0
  B  B3  8  0.14610000  0.75000000  0.13030000  1.0
  H0+  H4  8  0.04800000  0.75000000  0.05400000  1.0
  H0+  H5  8  0.08500000  0.25000000  0.70700000  1.0
  N0+  N6  8  0.02530000  0.75000000  0.64150000  1.0
