# generated using pymatgen
data_Mg2Sb1.5As2.5H32O20
_symmetry_space_group_name_H-M  'P 42/n m c :2'
_cell_length_a   7.21870000
_cell_length_b   7.21870000
_cell_length_c   10.46390000
_cell_angle_alpha   90.00000000
_cell_angle_beta   90.00000000
_cell_angle_gamma   90.00000000
_symmetry_Int_Tables_number   137
_chemical_formula_structural   Mg2Sb1.5As2.5H32O20
_chemical_formula_sum   'Mg2 Sb1.5 As2.5 H32 O20'
_cell_volume   545.26995411
_cell_formula_units_Z   1
loop_
 _symmetry_equiv_pos_site_id
 _symmetry_equiv_pos_as_xyz
  1  'x, y, z'
  2  '-y+1/2, x, z+1/2'
  3  '-x+1/2, -y+1/2, z'
  4  'y, -x+1/2, z+1/2'
  5  'x+1/2, -y, -z'
  6  '-y, -x, -z+1/2'
  7  '-x, y+1/2, -z'
  8  'y+1/2, x+1/2, -z+1/2'
  9  '-x, -y, -z'
  10  'y+1/2, -x, -z+1/2'
  11  'x+1/2, y+1/2, -z'
  12  '-y, x+1/2, -z+1/2'
  13  '-x+1/2, y, z'
  14  'y, x, z+1/2'
  15  'x, -y+1/2, z'
  16  '-y+1/2, -x+1/2, z+1/2'
loop_
 _atom_site_type_symbol
 _atom_site_label
 _atom_site_symmetry_multiplicity
 _atom_site_fract_x
 _atom_site_fract_y
 _atom_site_fract_z
 _atom_site_occupancy
  Mg  Mg0  2  0.25000000  0.75000000  0.25000000  1.0
  As+  As1  4  0.25000000  0.25000000  0.00851000  0.625
  Sb+  Sb2  4  0.25000000  0.25000000  0.00851000  0.375
  H  H3  16  0.03500000  0.45200000  0.70470000  1.0
  H  H4  8  0.10100000  0.25000000  0.42970000  1.0
  H  H5  8  0.15800000  0.75000000  0.01100000  1.0
  O  O6  8  0.04819000  0.95181000  0.25000000  1.0
  O  O7  8  0.07270000  0.25000000  0.08483000  1.0
  O  O8  4  0.25000000  0.75000000  0.05490000  1.0
