# generated using pymatgen
data_Fr5RbLiH83(C10O)9
_symmetry_space_group_name_H-M  'R 3 :H'
_cell_length_a   19.00720000
_cell_length_b   19.00720000
_cell_length_c   5.72430000
_cell_angle_alpha   90.00000000
_cell_angle_beta   90.00000000
_cell_angle_gamma   120.00000000
_symmetry_Int_Tables_number   146
_chemical_formula_structural   Fr5RbLiH83(C10O)9
_chemical_formula_sum   'Fr5.0 Rb1 Li1 H83 C90 O9'
_cell_volume   1790.97410670
_cell_formula_units_Z   1
loop_
 _symmetry_equiv_pos_site_id
 _symmetry_equiv_pos_as_xyz
  1  'x, y, z'
  2  '-y, x-y, z'
  3  '-x+y, -x, z'
  4  'x+2/3, y+1/3, z+1/3'
  5  '-y+2/3, x-y+1/3, z+1/3'
  6  '-x+y+2/3, -x+1/3, z+1/3'
  7  'x+1/3, y+2/3, z+2/3'
  8  '-y+1/3, x-y+2/3, z+2/3'
  9  '-x+y+1/3, -x+2/3, z+2/3'
loop_
 _atom_site_type_symbol
 _atom_site_label
 _atom_site_symmetry_multiplicity
 _atom_site_fract_x
 _atom_site_fract_y
 _atom_site_fract_z
 _atom_site_occupancy
  Fr+  Fr0  9  0.05553333  0.83436667  0.41646667
  0.5555555555555556
  Li+  Li1  9  0.05553333  0.83436667  0.41646667
  0.1111111111111111
  Rb+  Rb2  9  0.05553333  0.83436667  0.41646667
  0.1111111111111111
  H+  H3  9  0.05553333  0.83436667  0.41646667  0.2222222222222222
  H  H4  9  0.00710000  0.11000000  0.34370000  1.0
  H  H5  9  0.01133333  0.37086667  0.59596667  1.0
  H  H6  9  0.02286667  0.47393333  0.99373333  1.0
  H  H7  9  0.06750000  0.18650000  0.00570000  1.0
  H  H8  9  0.07973333  0.73486667  0.01496667  1.0
  H  H9  9  0.09476667  0.66683333  0.42853333  1.0
  H  H10  9  0.11580000  0.00770000  0.89170000  1.0
  H  H11  9  0.11773333  0.43646667  0.40156667  1.0
  H  H12  9  0.20430000  0.11500000  0.46410000  1.0
  C  C13  9  0.00750000  0.15420000  0.99980000  1.0
  C  C14  9  0.01566667  0.49663333  0.13323333  1.0
  C  C15  9  0.05523333  0.78026667  0.72506667  1.0
  C  C16  9  0.06896667  0.57843333  0.18653333  1.0
  C  C17  9  0.10273333  0.76456667  0.87516667  1.0
  C  C18  9  0.12633333  0.43416667  0.57316667  1.0
  C  C19  9  0.14650000  0.02480000  0.24020000  1.0
  C  C20  9  0.16313333  0.38086667  0.61686667  1.0
  C  C21  9  0.18443333  0.79196667  0.82306667  1.0
  C  C22  9  0.20600000  0.09680000  0.31070000  1.0
  O  O23  9  0.01604000  0.28467000  0.02520000  1.0
