# generated using pymatgen
data_SiGeH162Pb6C136O9
_symmetry_space_group_name_H-M  'R 3 :H'
_cell_length_a   20.96100000
_cell_length_b   20.96100000
_cell_length_c   7.08600000
_cell_angle_alpha   90.00000000
_cell_angle_beta   90.00000000
_cell_angle_gamma   120.00000000
_symmetry_Int_Tables_number   146
_chemical_formula_structural   SiGeH162Pb6C136O9
_chemical_formula_sum   'Si1 Ge1 H162 Pb6 C136 O9'
_cell_volume   2696.22279225
_cell_formula_units_Z   1
loop_
 _symmetry_equiv_pos_site_id
 _symmetry_equiv_pos_as_xyz
  1  'x, y, z'
  2  '-y, x-y, z'
  3  '-x+y, -x, z'
  4  'x+2/3, y+1/3, z+1/3'
  5  '-y+2/3, x-y+1/3, z+1/3'
  6  '-x+y+2/3, -x+1/3, z+1/3'
  7  'x+1/3, y+2/3, z+2/3'
  8  '-y+1/3, x-y+2/3, z+2/3'
  9  '-x+y+1/3, -x+2/3, z+2/3'
loop_
 _atom_site_type_symbol
 _atom_site_label
 _atom_site_symmetry_multiplicity
 _atom_site_fract_x
 _atom_site_fract_y
 _atom_site_fract_z
 _atom_site_occupancy
  H  H0  9  0.00616667  0.08203333  0.71763333  1.0
  H  H1  9  0.00883333  0.41516667  0.18916667  1.0
  H  H2  9  0.01486667  0.84723333  0.01243333  1.0
  H  H3  9  0.01960000  0.57860000  0.55830000  1.0
  H  H4  9  0.02020000  0.53170000  0.38680000  1.0
  H  H5  9  0.02270000  0.66710000  0.36090000  1.0
  H  H6  9  0.03723333  0.45846667  0.88966667  1.0
  H  H7  9  0.03996667  0.13743333  0.88693333  1.0
  H  H8  9  0.05036667  0.94163333  0.24273333  1.0
  H  H9  9  0.05606667  0.80093333  0.35033333  1.0
  H  H10  9  0.06090000  0.53380000  0.57430000  1.0
  H  H11  9  0.12130000  0.44370000  0.61080000  1.0
  H  H12  9  0.12490000  0.69550000  0.63360000  1.0
  H  H13  9  0.14170000  0.72210000  0.28500000  1.0
  H  H14  9  0.14730000  0.38640000  0.00780000  1.0
  H  H15  9  0.14886667  0.04673333  0.27313333  1.0
  H  H16  9  0.15140000  0.68750000  0.99940000  1.0
  H  H17  9  0.18416667  0.13223333  0.87243333  1.0
  Pb+  Pb18  9  0.17089000  0.47120000  0.17890000
  0.6666666666666666
  Ge+  Ge19  9  0.17089000  0.47120000  0.17890000
  0.1111111111111111
  C+  C20  9  0.17089000  0.47120000  0.17890000  0.1111111111111111
  Si+  Si21  9  0.17089000  0.47120000  0.17890000
  0.1111111111111111
  C  C22  9  0.02086667  0.81047333  0.41503333  1.0
  C  C23  9  0.03308667  0.13385333  0.75113333  1.0
  C  C24  9  0.04039667  0.82352333  0.75313333  1.0
  C  C25  9  0.04840000  0.56200000  0.49110000  1.0
  C  C26  9  0.05186667  0.13163333  0.34743333  1.0
  C  C27  9  0.05542667  0.88852333  0.47473333  1.0
  C  C28  9  0.06426667  0.89460333  0.65733333  1.0
  C  C29  9  0.09860000  0.36190000  0.43510000  1.0
  C  C30  9  0.10550000  0.66990000  0.26620000  1.0
  C  C31  9  0.10680000  0.34510000  0.25780000  1.0
  C  C32  9  0.12720000  0.43270000  0.48720000  1.0
  C  C33  9  0.14016667  0.01153333  0.36473333  1.0
  C  C34  9  0.14210000  0.39860000  0.13080000  1.0
  C  C35  9  0.15560000  0.67770000  0.58280000  1.0
  C  C36  9  0.16483000  0.48880000  0.36200000  1.0
  O  O37  9  0.00368667  0.70649333  0.58843333  1.0
