# generated using pymatgen
data_Cs9U36Te0.5Se7.5O132.5Lv0.5
_symmetry_space_group_name_H-M  'R 3 :H'
_cell_length_a   14.12410000
_cell_length_b   14.12410000
_cell_length_c   22.40730000
_cell_angle_alpha   90.00000000
_cell_angle_beta   90.00000000
_cell_angle_gamma   120.00000000
_symmetry_Int_Tables_number   146
_chemical_formula_structural   Cs9U36Te0.5Se7.5O132.5Lv0.5
_chemical_formula_sum   'Cs9 U36 Te0.5 Se7.5 O132.5 Lv0.5'
_cell_volume   3871.16540439
_cell_formula_units_Z   1
loop_
 _symmetry_equiv_pos_site_id
 _symmetry_equiv_pos_as_xyz
  1  'x, y, z'
  2  '-y, x-y, z'
  3  '-x+y, -x, z'
  4  'x+2/3, y+1/3, z+1/3'
  5  '-y+2/3, x-y+1/3, z+1/3'
  6  '-x+y+2/3, -x+1/3, z+1/3'
  7  'x+1/3, y+2/3, z+2/3'
  8  '-y+1/3, x-y+2/3, z+2/3'
  9  '-x+y+1/3, -x+2/3, z+2/3'
loop_
 _atom_site_type_symbol
 _atom_site_label
 _atom_site_symmetry_multiplicity
 _atom_site_fract_x
 _atom_site_fract_y
 _atom_site_fract_z
 _atom_site_occupancy
  Cs  Cs0  9  0.19696667  0.79233333  0.49683333  1
  U  U1  9  0.00208333  0.31071667  0.65807667  1
  U  U2  9  0.02318667  0.85685333  0.34008333  1
  U  U3  9  0.14242667  0.66777333  0.30414333  1
  U  U4  9  0.17139000  0.15090000  0.01209000  1
  O  O5  9  0.00233333  0.35566667  0.58226667  1
  O  O6  9  0.00233333  0.84266667  0.71266667  1
  O  O7  9  0.00433333  0.13966667  0.61436667  1
  O  O8  9  0.00600000  0.50200000  0.98200000  1
  O  O9  9  0.00633333  0.27166667  0.73366667  1
  O  O10  9  0.01266667  0.55433333  0.52513333  1
  O  O11  9  0.01466667  0.88033333  0.26413333  1
  O  O12  9  0.02666667  0.82633333  0.41553333  1
  O  O13  9  0.03200000  0.20600000  0.02700000  1
  O  O14  9  0.11900000  0.11800000  0.94000000  1
  O  O15  9  0.12166667  0.67233333  0.22483333  1
  O  O16  9  0.14533333  0.69866667  0.75266667  1
  O  O17  9  0.16400000  0.46000000  0.02420000  1
  O  O18  9  0.16833333  0.34266667  0.64536667  1
  O  O19  3  0.00000000  0.00000000  0.04600000  1
  O  O20  3  0.00000000  0.00000000  0.36333333  1
  Se+  Se21  9  0.00233333  0.62266667  0.64476667
  0.8333333333333334
  O+  O22  9  0.00233333  0.62266667  0.64476667
  0.05555555555555555
  Lv+  Lv23  9  0.00233333  0.62266667  0.64476667
  0.05555555555555555
  Te+  Te24  9  0.00233333  0.62266667  0.64476667
  0.05555555555555555
