# generated using pymatgen
data_Li16Re24S39OLv3Te
_symmetry_space_group_name_H-M  'P c c n'
_cell_length_a   9.57100000
_cell_length_b   14.00600000
_cell_length_c   11.67800000
_cell_angle_alpha   90.00000000
_cell_angle_beta   90.00000000
_cell_angle_gamma   90.00000000
_symmetry_Int_Tables_number   56
_chemical_formula_structural   Li16Re24S39OLv3Te
_chemical_formula_sum   'Li16 Re24 S39 O1 Lv3 Te1'
_cell_volume   1565.45255283
_cell_formula_units_Z   1
loop_
 _symmetry_equiv_pos_site_id
 _symmetry_equiv_pos_as_xyz
  1  'x, y, z'
  2  '-x, -y, -z'
  3  '-x+1/2, -y+1/2, z'
  4  'x+1/2, y+1/2, -z'
  5  'x+1/2, -y, -z+1/2'
  6  '-x+1/2, y, z+1/2'
  7  '-x, y+1/2, -z+1/2'
  8  'x, -y+1/2, z+1/2'
loop_
 _atom_type_symbol
 _atom_type_oxidation_number
  Li+  1.0
  Re3+  3.0
  Te2-  -2.0
  S2-  -2.0
  O2-  -2.0
  Lv2-  -2.0
loop_
 _atom_site_type_symbol
 _atom_site_label
 _atom_site_symmetry_multiplicity
 _atom_site_fract_x
 _atom_site_fract_y
 _atom_site_fract_z
 _atom_site_occupancy
  Li+  Li0  8  0.00000000  0.25000000  0.38000000  1.0
  Li+  Li1  8  0.18000000  0.66000000  0.88000000  1.0
  Re3+  Re2  8  0.07040000  0.55160000  0.36610000  1.0
  Re3+  Re3  8  0.10560000  0.10780000  0.97560000  1.0
  Re3+  Re4  8  0.14700000  0.55370000  0.58240000  1.0
  S2-  S5  8  0.02400000  0.10160000  0.77890000  1.0
  S2-  S6  8  0.16600000  0.09870000  0.17470000  1.0
  O2-  O7  8  0.10300000  0.69780000  0.47590000  0.125
  Lv2-  Lv8  8  0.10300000  0.69780000  0.47590000  0.375
  S2-  S9  8  0.10300000  0.69780000  0.47590000  0.375
  Te2-  Te10  8  0.10300000  0.69780000  0.47590000  0.125
  S2-  S11  8  0.15600000  0.62480000  0.18700000  1.0
  S2-  S12  8  0.20200000  0.50020000  0.93080000  1.0
  S2-  S13  4  0.25000000  0.25000000  0.42550000  1.0
