# generated using pymatgen
data_Fr2RbNa21Nb8O32
_symmetry_space_group_name_H-M  'I 2 3'
_cell_length_a   8.42900000
_cell_length_b   8.42900000
_cell_length_c   8.42900000
_cell_angle_alpha   90.00000000
_cell_angle_beta   90.00000000
_cell_angle_gamma   90.00000000
_symmetry_Int_Tables_number   197
_chemical_formula_structural   Fr2RbNa21Nb8O32
_chemical_formula_sum   'Fr2.0 Rb1.0 Na21 Nb8 O32'
_cell_volume   598.86393759
_cell_formula_units_Z   1
loop_
 _symmetry_equiv_pos_site_id
 _symmetry_equiv_pos_as_xyz
  1  'x, y, z'
  2  '-x, -y, z'
  3  'x, -y, -z'
  4  '-x, y, -z'
  5  'z, x, y'
  6  'z, -x, -y'
  7  '-z, x, -y'
  8  '-z, -x, y'
  9  'y, z, x'
  10  '-y, z, -x'
  11  '-y, -z, x'
  12  'y, -z, -x'
  13  'x+1/2, y+1/2, z+1/2'
  14  '-x+1/2, -y+1/2, z+1/2'
  15  'x+1/2, -y+1/2, -z+1/2'
  16  '-x+1/2, y+1/2, -z+1/2'
  17  'z+1/2, x+1/2, y+1/2'
  18  'z+1/2, -x+1/2, -y+1/2'
  19  '-z+1/2, x+1/2, -y+1/2'
  20  '-z+1/2, -x+1/2, y+1/2'
  21  'y+1/2, z+1/2, x+1/2'
  22  '-y+1/2, z+1/2, -x+1/2'
  23  '-y+1/2, -z+1/2, x+1/2'
  24  'y+1/2, -z+1/2, -x+1/2'
loop_
 _atom_type_symbol
 _atom_type_oxidation_number
  Fr+  1.0
  Rb+  1.0
  Na+  1.0
  Nb5+  5.0
  O2-  -2.0
loop_
 _atom_site_type_symbol
 _atom_site_label
 _atom_site_symmetry_multiplicity
 _atom_site_fract_x
 _atom_site_fract_y
 _atom_site_fract_z
 _atom_site_occupancy
  Na+  Na0  24  0.12500000  0.12500000  0.62500000  0.875
  Rb+  Rb1  24  0.12500000  0.12500000  0.62500000
  0.041666666666666664
  Fr+  Fr2  24  0.12500000  0.12500000  0.62500000
  0.08333333333333333
  Nb5+  Nb3  8  0.14000000  0.14000000  0.14000000  1.0
  O2-  O4  24  0.11500000  0.35000000  0.13000000  1.0
  O2-  O5  8  0.11000000  0.11000000  0.89000000  1.0
