# generated using pymatgen
data_ZnHgAsI2N3ClTs
_symmetry_space_group_name_H-M  'C m m m'
_cell_length_a   8.18000000
_cell_length_b   8.29000000
_cell_length_c   3.96000000
_cell_angle_alpha   90.00000000
_cell_angle_beta   90.00000000
_cell_angle_gamma   90.00000000
_symmetry_Int_Tables_number   65
_chemical_formula_structural   ZnHgAsI2N3ClTs
_chemical_formula_sum   'Zn1 Hg1 As1 I2 N3 Cl1 Ts1'
_cell_volume   268.53631200
_cell_formula_units_Z   1
loop_
 _symmetry_equiv_pos_site_id
 _symmetry_equiv_pos_as_xyz
  1  'x, y, z'
  2  '-x, -y, -z'
  3  '-x, -y, z'
  4  'x, y, -z'
  5  'x, -y, -z'
  6  '-x, y, z'
  7  '-x, y, -z'
  8  'x, -y, z'
  9  'x+1/2, y+1/2, z'
  10  '-x+1/2, -y+1/2, -z'
  11  '-x+1/2, -y+1/2, z'
  12  'x+1/2, y+1/2, -z'
  13  'x+1/2, -y+1/2, -z'
  14  '-x+1/2, y+1/2, z'
  15  '-x+1/2, y+1/2, -z'
  16  'x+1/2, -y+1/2, z'
loop_
 _atom_type_symbol
 _atom_type_oxidation_number
  Zn+  1.0
  Hg+  1.0
  As+  1.0
  I+  1.0
  N+  1.0
  Cl+  1.0
  Ts+  1.0
loop_
 _atom_site_type_symbol
 _atom_site_label
 _atom_site_symmetry_multiplicity
 _atom_site_fract_x
 _atom_site_fract_y
 _atom_site_fract_z
 _atom_site_occupancy
  Hg+  Hg0  2  0.00000000  0.00000000  0.00000000  0.5
  Zn+  Zn1  2  0.00000000  0.00000000  0.00000000  0.5
  N+  N2  4  0.00000000  0.25000000  0.00000000  0.75
  As+  As3  4  0.00000000  0.25000000  0.00000000  0.25
  Cl+  Cl4  4  0.22600000  0.00000000  0.50000000  0.25
  Ts+  Ts5  4  0.22600000  0.00000000  0.50000000  0.25
  I+  I6  4  0.22600000  0.00000000  0.50000000  0.5
