# generated using pymatgen
data_Fl3Sn5Po3SO10Lv2
_symmetry_space_group_name_H-M  'P c c a'
_cell_length_a   7.31778000
_cell_length_b   4.43911000
_cell_length_c   9.66304000
_cell_angle_alpha   90.00000000
_cell_angle_beta   90.00000000
_cell_angle_gamma   90.00000000
_symmetry_Int_Tables_number   54
_chemical_formula_structural   Fl3Sn5Po3SO10Lv2
_chemical_formula_sum   'Fl3 Sn5 Po3 S1 O10 Lv2'
_cell_volume   313.89835010
_cell_formula_units_Z   1
loop_
 _symmetry_equiv_pos_site_id
 _symmetry_equiv_pos_as_xyz
  1  'x, y, z'
  2  '-x, -y, -z'
  3  '-x+1/2, -y, z'
  4  'x+1/2, y, -z'
  5  'x+1/2, -y, -z+1/2'
  6  '-x+1/2, y, z+1/2'
  7  '-x, y, -z+1/2'
  8  'x, -y, z+1/2'
loop_
 _atom_type_symbol
 _atom_type_oxidation_number
  Sn0+  0.0
  Po0+  0.0
  S0+  0.0
  O0+  0.0
  Fl0+  0.0
  Lv0+  0.0
loop_
 _atom_site_type_symbol
 _atom_site_label
 _atom_site_symmetry_multiplicity
 _atom_site_fract_x
 _atom_site_fract_y
 _atom_site_fract_z
 _atom_site_occupancy
  Fl0+  Fl0  8  0.07222000  0.22015000  0.89887000  0.375
  Sn0+  Sn1  8  0.07222000  0.22015000  0.89887000  0.625
  O0+  O2  4  0.00000000  0.00000000  0.00000000  1.0
  O0+  O3  4  0.00000000  0.31606000  0.75000000  1.0
  S0+  S4  4  0.25000000  0.00000000  0.36604000  0.25
  O0+  O5  4  0.25000000  0.00000000  0.36604000  0.25
  Lv0+  Lv6  4  0.25000000  0.00000000  0.36604000  0.5
  O0+  O7  4  0.00000000  0.50000000  0.00000000  0.25
  Po0+  Po8  4  0.00000000  0.50000000  0.00000000  0.75
