# generated using pymatgen
data_V4Co4Sb2.33333333P0.66666667C8N9F20
_symmetry_space_group_name_H-M  'I m m a'
_cell_length_a   9.07380000
_cell_length_b   7.46270000
_cell_length_c   9.44070000
_cell_angle_alpha   90.00000000
_cell_angle_beta   90.00000000
_cell_angle_gamma   90.00000000
_symmetry_Int_Tables_number   74
_chemical_formula_structural   V4Co4Sb2.33333333P0.66666667C8N9F20
_chemical_formula_sum   'V4 Co4 Sb2.33333333 P0.66666667 C8 N9 F20'
_cell_volume   639.27744667
_cell_formula_units_Z   1
loop_
 _symmetry_equiv_pos_site_id
 _symmetry_equiv_pos_as_xyz
  1  'x, y, z'
  2  '-x, -y, -z'
  3  '-x, -y+1/2, z'
  4  'x, y+1/2, -z'
  5  '-x, y+1/2, -z'
  6  'x, -y+1/2, z'
  7  'x, -y, -z'
  8  '-x, y, z'
  9  'x+1/2, y+1/2, z+1/2'
  10  '-x+1/2, -y+1/2, -z+1/2'
  11  '-x+1/2, -y, z+1/2'
  12  'x+1/2, y, -z+1/2'
  13  '-x+1/2, y, -z+1/2'
  14  'x+1/2, -y, z+1/2'
  15  'x+1/2, -y+1/2, -z+1/2'
  16  '-x+1/2, y+1/2, z+1/2'
loop_
 _atom_site_type_symbol
 _atom_site_label
 _atom_site_symmetry_multiplicity
 _atom_site_fract_x
 _atom_site_fract_y
 _atom_site_fract_z
 _atom_site_occupancy
  V  V0  4  0.00000000  0.00000000  0.00000000  1.0
  Co  Co1  4  0.25000000  0.25000000  0.25000000  1.0
  Sb+  Sb2  4  0.00000000  0.25000000  0.63420000
  0.5833333333333334
  P+  P3  4  0.00000000  0.25000000  0.63420000  0.16666666666666666
  N+  N4  4  0.00000000  0.25000000  0.63420000  0.25
  C  C5  8  0.12230000  0.25000000  0.54850000  1.0
  N  N6  8  0.07520000  0.25000000  0.42070000  1.0
  F  F7  16  0.14800000  0.05570000  0.13560000  1.0
  F  F8  4  0.00000000  0.25000000  0.92310000  1.0
