# generated using pymatgen
data_Si4Te0.33333333Se0.33333333O7.16666667Lv0.16666667
_symmetry_space_group_name_H-M  'P 1 m 1'
_cell_length_a   4.70820000
_cell_length_b   5.52820000
_cell_length_c   5.00640000
_cell_angle_alpha   90.00000000
_cell_angle_beta   107.83460000
_cell_angle_gamma   90.00000000
_symmetry_Int_Tables_number   6
_chemical_formula_structural
Si4Te0.33333333Se0.33333333O7.16666667Lv0.16666667
_chemical_formula_sum
'Si4 Te0.33333333 Se0.33333333 O7.16666667 Lv0.16666667'
_cell_volume   124.04403268
_cell_formula_units_Z   1
loop_
 _symmetry_equiv_pos_site_id
 _symmetry_equiv_pos_as_xyz
  1  'x, y, z'
  2  'x, -y, z'
loop_
 _atom_site_type_symbol
 _atom_site_label
 _atom_site_symmetry_multiplicity
 _atom_site_fract_x
 _atom_site_fract_y
 _atom_site_fract_z
 _atom_site_occupancy
  Si  Si0  1  0.00000000  0.50000000  0.00000000  1
  Si  Si1  1  0.53662000  0.50000000  0.53762000  1
  Si  Si2  1  0.54481000  0.00000000  0.55830000  1
  Si  Si3  1  0.95079000  0.00000000  0.21653000  1
  O  O4  2  0.46696000  0.25318000  0.68687000  1
  O  O5  2  0.82996000  0.25443000  0.05792000  1
  O  O6  1  0.30313000  0.00000000  0.25680000  1
  O  O7  1  0.35985000  0.50000000  0.19218000  1
  O  O8  1  0.90747000  0.50000000  0.65132000  1
  Se+  Se9  1  0.87559000  0.00000000  0.51469000
  0.3333333333333333
  Te+  Te10  1  0.87559000  0.00000000  0.51469000
  0.3333333333333333
  Lv+  Lv11  1  0.87559000  0.00000000  0.51469000
  0.16666666666666666
  O+  O12  1  0.87559000  0.00000000  0.51469000
  0.16666666666666666
