# generated using pymatgen
data_RaMg3Be8SbAs5N2
_symmetry_space_group_name_H-M  'I 4/m c m'
_cell_length_a   5.56150000
_cell_length_b   5.56150000
_cell_length_c   6.87970000
_cell_angle_alpha   90.00000000
_cell_angle_beta   90.00000000
_cell_angle_gamma   90.00000000
_symmetry_Int_Tables_number   140
_chemical_formula_structural   RaMg3Be8SbAs5N2
_chemical_formula_sum   'Ra1 Mg3 Be8 Sb1 As5 N2'
_cell_volume   212.79106280
_cell_formula_units_Z   1
loop_
 _symmetry_equiv_pos_site_id
 _symmetry_equiv_pos_as_xyz
  1  'x, y, z'
  2  '-x, -y, -z'
  3  '-y, x, z'
  4  'y, -x, -z'
  5  '-x, -y, z'
  6  'x, y, -z'
  7  'y, -x, z'
  8  '-y, x, -z'
  9  'x, -y, -z+1/2'
  10  '-x, y, z+1/2'
  11  '-y, -x, -z+1/2'
  12  'y, x, z+1/2'
  13  '-x, y, -z+1/2'
  14  'x, -y, z+1/2'
  15  'y, x, -z+1/2'
  16  '-y, -x, z+1/2'
  17  'x+1/2, y+1/2, z+1/2'
  18  '-x+1/2, -y+1/2, -z+1/2'
  19  '-y+1/2, x+1/2, z+1/2'
  20  'y+1/2, -x+1/2, -z+1/2'
  21  '-x+1/2, -y+1/2, z+1/2'
  22  'x+1/2, y+1/2, -z+1/2'
  23  'y+1/2, -x+1/2, z+1/2'
  24  '-y+1/2, x+1/2, -z+1/2'
  25  'x+1/2, -y+1/2, -z'
  26  '-x+1/2, y+1/2, z'
  27  '-y+1/2, -x+1/2, -z'
  28  'y+1/2, x+1/2, z'
  29  '-x+1/2, y+1/2, -z'
  30  'x+1/2, -y+1/2, z'
  31  'y+1/2, x+1/2, -z'
  32  '-y+1/2, -x+1/2, z'
loop_
 _atom_type_symbol
 _atom_type_oxidation_number
  Ra0+  0.0
  Mg0+  0.0
  Be0+  0.0
  Sb0+  0.0
  As0+  0.0
  N0+  0.0
loop_
 _atom_site_type_symbol
 _atom_site_label
 _atom_site_symmetry_multiplicity
 _atom_site_fract_x
 _atom_site_fract_y
 _atom_site_fract_z
 _atom_site_occupancy
  Ra0+  Ra0  4  0.00000000  0.00000000  0.25000000  0.25
  Mg0+  Mg1  4  0.00000000  0.00000000  0.25000000  0.75
  Be0+  Be2  8  0.12060000  0.37940000  0.00000000  1.0
  As0+  As3  8  0.16880000  0.33120000  0.50000000  0.625
  Sb0+  Sb4  8  0.16880000  0.33120000  0.50000000  0.125
  N0+  N5  8  0.16880000  0.33120000  0.50000000  0.25
