# generated using pymatgen
data_K2LiSi2AtHBr2F9
_symmetry_space_group_name_H-M  'P 63 m c'
_cell_length_a   5.64610000
_cell_length_b   5.64610000
_cell_length_c   9.23220000
_cell_angle_alpha   90.00000000
_cell_angle_beta   90.00000000
_cell_angle_gamma   120.00000000
_symmetry_Int_Tables_number   186
_chemical_formula_structural   K2LiSi2AtHBr2F9
_chemical_formula_sum   'K2 Li1 Si2 H1 At1.0 Br2.0 F9'
_cell_volume   254.87836204
_cell_formula_units_Z   1
loop_
 _symmetry_equiv_pos_site_id
 _symmetry_equiv_pos_as_xyz
  1  'x, y, z'
  2  'x-y, x, z+1/2'
  3  '-y, x-y, z'
  4  '-x, -y, z+1/2'
  5  '-x+y, -x, z'
  6  'y, -x+y, z+1/2'
  7  'y, x, z+1/2'
  8  'x, x-y, z'
  9  'x-y, -y, z+1/2'
  10  '-y, -x, z'
  11  '-x, -x+y, z+1/2'
  12  '-x+y, y, z'
loop_
 _atom_site_type_symbol
 _atom_site_label
 _atom_site_symmetry_multiplicity
 _atom_site_fract_x
 _atom_site_fract_y
 _atom_site_fract_z
 _atom_site_occupancy
  K  K0  2  0.33333333  0.66666667  0.59275000  1
  Li+  Li1  2  0.00000000  0.00000000  0.31199000  0.5
  H+  H2  2  0.00000000  0.00000000  0.31199000  0.5
  Si  Si3  2  0.33333333  0.66666667  0.97559000  1
  F+  F4  6  0.19125000  0.38249000  0.07798000  0.5
  Br+  Br5  6  0.19125000  0.38249000  0.07798000
  0.3333333333333333
  At+  At6  6  0.19125000  0.38249000  0.07798000
  0.16666666666666666
  F  F7  6  0.05287000  0.52644000  0.86889000  1
