# generated using pymatgen
data_Ga8Po1.16666667Se6S0.83333333
_symmetry_space_group_name_H-M  'P 63 m c'
_cell_length_a   3.75500000
_cell_length_b   3.75500000
_cell_length_c   31.99000000
_cell_angle_alpha   90.00000000
_cell_angle_beta   90.00000000
_cell_angle_gamma   120.00000000
_symmetry_Int_Tables_number   186
_chemical_formula_structural   Ga8Po1.16666667Se6S0.83333333
_chemical_formula_sum   'Ga8 Po1.16666667 Se6 S0.83333333'
_cell_volume   390.62924521
_cell_formula_units_Z   1
loop_
 _symmetry_equiv_pos_site_id
 _symmetry_equiv_pos_as_xyz
  1  'x, y, z'
  2  'x-y, x, z+1/2'
  3  '-y, x-y, z'
  4  '-x, -y, z+1/2'
  5  '-x+y, -x, z'
  6  'y, -x+y, z+1/2'
  7  'y, x, z+1/2'
  8  'x, x-y, z'
  9  'x-y, -y, z+1/2'
  10  '-y, -x, z'
  11  '-x, -x+y, z+1/2'
  12  '-x+y, y, z'
loop_
 _atom_site_type_symbol
 _atom_site_label
 _atom_site_symmetry_multiplicity
 _atom_site_fract_x
 _atom_site_fract_y
 _atom_site_fract_z
 _atom_site_occupancy
  Ga  Ga0  2  0.00000000  0.00000000  0.03940000  1.0
  Ga  Ga1  2  0.00000000  0.00000000  0.46200000  1.0
  Ga  Ga2  2  0.33333333  0.66666667  0.21190000  1.0
  Ga  Ga3  2  0.33333333  0.66666667  0.28800000  1.0
  S+  S4  2  0.00000000  0.00000000  0.32740000  0.4166666666666667
  Po+  Po5  2  0.00000000  0.00000000  0.32740000
  0.5833333333333334
  Se  Se6  2  0.00000000  0.00000000  0.17810000  1.0
  Se  Se7  2  0.33333333  0.66666667  0.42550000  1.0
  Se  Se8  2  0.33333333  0.66666667  0.57520000  1.0
