# generated using pymatgen
data_Na6Ca6Nh1Al0.25In0.25Ga0.5P8
_symmetry_space_group_name_H-M  'P 63 m c'
_cell_length_a   9.35800000
_cell_length_b   9.35800000
_cell_length_c   7.14770000
_cell_angle_alpha   90.00000000
_cell_angle_beta   90.00000000
_cell_angle_gamma   120.00000000
_symmetry_Int_Tables_number   186
_chemical_formula_structural   Na6Ca6Nh1Al0.25In0.25Ga0.5P8
_chemical_formula_sum   'Na6 Ca6 Nh1 Al0.25 In0.25 Ga0.5 P8'
_cell_volume   542.07955727
_cell_formula_units_Z   1
loop_
 _symmetry_equiv_pos_site_id
 _symmetry_equiv_pos_as_xyz
  1  'x, y, z'
  2  'x-y, x, z+1/2'
  3  '-y, x-y, z'
  4  '-x, -y, z+1/2'
  5  '-x+y, -x, z'
  6  'y, -x+y, z+1/2'
  7  'y, x, z+1/2'
  8  'x, x-y, z'
  9  'x-y, -y, z+1/2'
  10  '-y, -x, z'
  11  '-x, -x+y, z+1/2'
  12  '-x+y, y, z'
loop_
 _atom_site_type_symbol
 _atom_site_label
 _atom_site_symmetry_multiplicity
 _atom_site_fract_x
 _atom_site_fract_y
 _atom_site_fract_z
 _atom_site_occupancy
  Na  Na0  6  0.14370000  0.85630000  0.07080000  1.0
  Ca  Ca1  6  0.05396000  0.52698000  0.73750000  1.0
  Nh+  Nh2  2  0.33333333  0.66666667  0.36022000  0.5
  Al+  Al3  2  0.33333333  0.66666667  0.36022000  0.125
  Ga+  Ga4  2  0.33333333  0.66666667  0.36022000  0.25
  In+  In5  2  0.33333333  0.66666667  0.36022000  0.125
  P  P6  6  0.18468000  0.36936000  0.47450000  1.0
  P  P7  2  0.33333333  0.66666667  0.00000000  1.0
