# generated using pymatgen
data_Ba2Y2Fl1.5Si6Ge0.5N14
_symmetry_space_group_name_H-M  'P 63 m c'
_cell_length_a   6.02100000
_cell_length_b   6.02100000
_cell_length_c   9.80300000
_cell_angle_alpha   90.00000000
_cell_angle_beta   90.00000000
_cell_angle_gamma   120.00000000
_symmetry_Int_Tables_number   186
_chemical_formula_structural   Ba2Y2Fl1.5Si6Ge0.5N14
_chemical_formula_sum   'Ba2 Y2 Fl1.5 Si6 Ge0.5 N14'
_cell_volume   307.77042819
_cell_formula_units_Z   1
loop_
 _symmetry_equiv_pos_site_id
 _symmetry_equiv_pos_as_xyz
  1  'x, y, z'
  2  'x-y, x, z+1/2'
  3  '-y, x-y, z'
  4  '-x, -y, z+1/2'
  5  '-x+y, -x, z'
  6  'y, -x+y, z+1/2'
  7  'y, x, z+1/2'
  8  'x, x-y, z'
  9  'x-y, -y, z+1/2'
  10  '-y, -x, z'
  11  '-x, -x+y, z+1/2'
  12  '-x+y, y, z'
loop_
 _atom_type_symbol
 _atom_type_oxidation_number
  Ba0+  0.0
  Y0+  0.0
  Si0+  0.0
  Ge0+  0.0
  N0+  0.0
  Fl0+  0.0
loop_
 _atom_site_type_symbol
 _atom_site_label
 _atom_site_symmetry_multiplicity
 _atom_site_fract_x
 _atom_site_fract_y
 _atom_site_fract_z
 _atom_site_occupancy
  Ba0+  Ba0  2  0.33333333  0.66666667  0.36260000  1.0
  Y0+  Y1  2  0.33333333  0.66666667  0.73670000  1.0
  Fl0+  Fl2  2  0.00000000  0.00000000  0.31320000  0.75
  Ge0+  Ge3  2  0.00000000  0.00000000  0.31320000  0.25
  Si0+  Si4  6  0.17370000  0.34740000  0.04640000  1.0
  N0+  N5  6  0.02560000  0.51280000  0.09850000  1.0
  N0+  N6  6  0.15210000  0.30420000  0.87420000  1.0
  N0+  N7  2  0.00000000  0.00000000  0.12410000  1.0
