# generated using pymatgen
data_Cn0.66666667Zn0.66666667Cd0.33333333Hg0.33333333Po0.66666667O1.33333333
_symmetry_space_group_name_H-M  'P 63 m c'
_cell_length_a   3.24930800
_cell_length_b   3.24930800
_cell_length_c   5.20570900
_cell_angle_alpha   90.00000000
_cell_angle_beta   90.00000000
_cell_angle_gamma   120.00000000
_symmetry_Int_Tables_number   186
_chemical_formula_structural
;
Cn0.66666667Zn0.66666667Cd0.33333333Hg0.33333333Po0.66666667O1.3333333
3
;
_chemical_formula_sum
;
Cn0.66666667 Zn0.66666667 Cd0.33333333 Hg0.33333333 Po0.66666667
O1.33333333
;
_cell_volume   47.59839170
_cell_formula_units_Z   1
loop_
 _symmetry_equiv_pos_site_id
 _symmetry_equiv_pos_as_xyz
  1  'x, y, z'
  2  'x-y, x, z+1/2'
  3  '-y, x-y, z'
  4  '-x, -y, z+1/2'
  5  '-x+y, -x, z'
  6  'y, -x+y, z+1/2'
  7  'y, x, z+1/2'
  8  'x, x-y, z'
  9  'x-y, -y, z+1/2'
  10  '-y, -x, z'
  11  '-x, -x+y, z+1/2'
  12  '-x+y, y, z'
loop_
 _atom_type_symbol
 _atom_type_oxidation_number
  Zn+  1.0
  Cd+  1.0
  Hg+  1.0
  Po+  1.0
  O+  1.0
  Cn+  1.0
loop_
 _atom_site_type_symbol
 _atom_site_label
 _atom_site_symmetry_multiplicity
 _atom_site_fract_x
 _atom_site_fract_y
 _atom_site_fract_z
 _atom_site_occupancy
  Cn+  Cn0  2  0.33333333  0.66666667  0.50000000
  0.3333333333333333
  Zn+  Zn1  2  0.33333333  0.66666667  0.50000000
  0.3333333333333333
  Cd+  Cd2  2  0.33333333  0.66666667  0.50000000
  0.16666666666666666
  Hg+  Hg3  2  0.33333333  0.66666667  0.50000000
  0.16666666666666666
  Po+  Po4  2  0.33333333  0.66666667  0.87901000
  0.3333333333333333
  O+  O5  2  0.33333333  0.66666667  0.87901000  0.6666666666666666
