# generated using pymatgen
data_Fe1.5Os1Ru1Hs0.5Po0.5Te0.5Mo6O15
_symmetry_space_group_name_H-M  'P 63 m c'
_cell_length_a   5.78100000
_cell_length_b   5.78100000
_cell_length_c   10.06000000
_cell_angle_alpha   90.00000000
_cell_angle_beta   90.00000000
_cell_angle_gamma   120.00000000
_symmetry_Int_Tables_number   186
_chemical_formula_structural   Fe1.5Os1Ru1Hs0.5Po0.5Te0.5Mo6O15
_chemical_formula_sum   'Fe1.5 Os1 Ru1 Hs0.5 Po0.5 Te0.5 Mo6 O15'
_cell_volume   291.16190431
_cell_formula_units_Z   1
loop_
 _symmetry_equiv_pos_site_id
 _symmetry_equiv_pos_as_xyz
  1  'x, y, z'
  2  'x-y, x, z+1/2'
  3  '-y, x-y, z'
  4  '-x, -y, z+1/2'
  5  '-x+y, -x, z'
  6  'y, -x+y, z+1/2'
  7  'y, x, z+1/2'
  8  'x, x-y, z'
  9  'x-y, -y, z+1/2'
  10  '-y, -x, z'
  11  '-x, -x+y, z+1/2'
  12  '-x+y, y, z'
loop_
 _atom_site_type_symbol
 _atom_site_label
 _atom_site_symmetry_multiplicity
 _atom_site_fract_x
 _atom_site_fract_y
 _atom_site_fract_z
 _atom_site_occupancy
  Fe+  Fe0  2  0.33333333  0.66666667  0.95040000  0.5
  Os+  Os1  2  0.33333333  0.66666667  0.95040000  0.25
  Ru+  Ru2  2  0.33333333  0.66666667  0.95040000  0.25
  Ru+  Ru3  2  0.33333333  0.66666667  0.51200000  0.25
  Os+  Os4  2  0.33333333  0.66666667  0.51200000  0.25
  Fe+  Fe5  2  0.33333333  0.66666667  0.51200000  0.25
  Hs+  Hs6  2  0.33333333  0.66666667  0.51200000  0.25
  Mo  Mo7  6  0.14603000  0.29206000  0.25000000  1
  O+  O8  2  0.33333333  0.66666667  0.14860000  0.5
  Te+  Te9  2  0.33333333  0.66666667  0.14860000  0.25
  Po+  Po10  2  0.33333333  0.66666667  0.14860000  0.25
  O  O11  6  0.02560000  0.51280000  0.36450000  1
  O  O12  6  0.16650000  0.33300000  0.63520000  1
  O  O13  2  0.00000000  0.00000000  0.39230000  1
