# generated using pymatgen
data_Ir1Mt0.25Co0.5Sb4Rh0.25O12
_symmetry_space_group_name_H-M  'P 42/m n m'
_cell_length_a   4.64950000
_cell_length_b   4.64950000
_cell_length_c   9.27630000
_cell_angle_alpha   90.00000000
_cell_angle_beta   90.00000000
_cell_angle_gamma   90.00000000
_symmetry_Int_Tables_number   136
_chemical_formula_structural   Ir1Mt0.25Co0.5Sb4Rh0.25O12
_chemical_formula_sum   'Ir1 Mt0.25 Co0.5 Sb4 Rh0.25 O12'
_cell_volume   200.53366427
_cell_formula_units_Z   1
loop_
 _symmetry_equiv_pos_site_id
 _symmetry_equiv_pos_as_xyz
  1  'x, y, z'
  2  '-x, -y, -z'
  3  '-y+1/2, x+1/2, z+1/2'
  4  'y+1/2, -x+1/2, -z+1/2'
  5  '-x, -y, z'
  6  'x, y, -z'
  7  'y+1/2, -x+1/2, z+1/2'
  8  '-y+1/2, x+1/2, -z+1/2'
  9  'x+1/2, -y+1/2, -z+1/2'
  10  '-x+1/2, y+1/2, z+1/2'
  11  '-y, -x, -z'
  12  'y, x, z'
  13  '-x+1/2, y+1/2, -z+1/2'
  14  'x+1/2, -y+1/2, z+1/2'
  15  'y, x, -z'
  16  '-y, -x, z'
loop_
 _atom_type_symbol
 _atom_type_oxidation_number
  Co0+  0.0
  Sb0+  0.0
  Ir0+  0.0
  Rh0+  0.0
  O0+  0.0
  Mt0+  0.0
loop_
 _atom_site_type_symbol
 _atom_site_label
 _atom_site_symmetry_multiplicity
 _atom_site_fract_x
 _atom_site_fract_y
 _atom_site_fract_z
 _atom_site_occupancy
  Ir0+  Ir0  2  0.00000000  0.00000000  0.00000000  0.5
  Mt0+  Mt1  2  0.00000000  0.00000000  0.00000000  0.125
  Co0+  Co2  2  0.00000000  0.00000000  0.00000000  0.25
  Rh0+  Rh3  2  0.00000000  0.00000000  0.00000000  0.125
  Sb0+  Sb4  4  0.00000000  0.00000000  0.33580000  1.0
  O0+  O5  8  0.19740000  0.80260000  0.17360000  1.0
  O0+  O6  4  0.19180000  0.80820000  0.50000000  1.0
