# generated using pymatgen
data_Si12Bi0.33333333Sb0.33333333N15Mc0.33333333
_symmetry_space_group_name_H-M  'P 3 1 c'
_cell_length_a   7.76600000
_cell_length_b   7.76600000
_cell_length_c   5.62970000
_cell_angle_alpha   90.00000000
_cell_angle_beta   90.00000000
_cell_angle_gamma   120.00000000
_symmetry_Int_Tables_number   159
_chemical_formula_structural
Si12Bi0.33333333Sb0.33333333N15Mc0.33333333
_chemical_formula_sum
'Si12 Bi0.33333333 Sb0.33333333 N15 Mc0.33333333'
_cell_volume   294.04287239
_cell_formula_units_Z   1
loop_
 _symmetry_equiv_pos_site_id
 _symmetry_equiv_pos_as_xyz
  1  'x, y, z'
  2  '-y, x-y, z'
  3  '-x+y, -x, z'
  4  'y, x, z+1/2'
  5  'x-y, -y, z+1/2'
  6  '-x, -x+y, z+1/2'
loop_
 _atom_type_symbol
 _atom_type_oxidation_number
  Si4+  4.0
  Bi3-  -3.0
  Sb3-  -3.0
  N3-  -3.0
  Mc3-  -3.0
loop_
 _atom_site_type_symbol
 _atom_site_label
 _atom_site_symmetry_multiplicity
 _atom_site_fract_x
 _atom_site_fract_y
 _atom_site_fract_z
 _atom_site_occupancy
  Si4+  Si0  6  0.07810000  0.50710000  0.67640000  1.0
  Si4+  Si1  6  0.08510000  0.83210000  0.96000000  1.0
  N3-  N2  6  0.00310000  0.68400000  0.72050000  1.0
  N3-  N3  2  0.00000000  0.00000000  0.00000000  1.0
  N3-  N4  2  0.33333333  0.66666667  0.63000000  0.5
  Bi3-  Bi5  2  0.33333333  0.66666667  0.63000000
  0.16666666666666666
  Sb3-  Sb6  2  0.33333333  0.66666667  0.63000000
  0.16666666666666666
  Mc3-  Mc7  2  0.33333333  0.66666667  0.63000000
  0.16666666666666666
  N3-  N8  6  0.04150000  0.38850000  0.95250000  1.0
