# generated using pymatgen
data_K3.5Na0.5Hg1Cn0.5Cd0.5I6.5F0.5Ts1
_symmetry_space_group_name_H-M  'P 3 1 c'
_cell_length_a   11.67000000
_cell_length_b   11.67000000
_cell_length_c   7.48000000
_cell_angle_alpha   90.00000000
_cell_angle_beta   90.00000000
_cell_angle_gamma   120.00000000
_symmetry_Int_Tables_number   159
_chemical_formula_structural   K3.5Na0.5Hg1Cn0.5Cd0.5I6.5F0.5Ts1
_chemical_formula_sum   'K3.5 Na0.5 Hg1 Cn0.5 Cd0.5 I6.5 F0.5 Ts1'
_cell_volume   882.21399241
_cell_formula_units_Z   1
loop_
 _symmetry_equiv_pos_site_id
 _symmetry_equiv_pos_as_xyz
  1  'x, y, z'
  2  '-y, x-y, z'
  3  '-x+y, -x, z'
  4  'y, x, z+1/2'
  5  'x-y, -y, z+1/2'
  6  '-x, -x+y, z+1/2'
loop_
 _atom_type_symbol
 _atom_type_oxidation_number
  K0+  0.0
  Na0+  0.0
  Cd0+  0.0
  Hg0+  0.0
  I0+  0.0
  F0+  0.0
  Cn0+  0.0
  Ts0+  0.0
loop_
 _atom_site_type_symbol
 _atom_site_label
 _atom_site_symmetry_multiplicity
 _atom_site_fract_x
 _atom_site_fract_y
 _atom_site_fract_z
 _atom_site_occupancy
  K0+  K0  2  0.00000000  0.00000000  0.26000000  1.0
  K0+  K1  2  0.00000000  0.00000000  0.02500000  0.75
  Na0+  Na2  2  0.00000000  0.00000000  0.02500000  0.25
  Hg0+  Hg3  2  0.33333333  0.66666667  0.00000000  0.5
  Cn0+  Cn4  2  0.33333333  0.66666667  0.00000000  0.25
  Cd0+  Cd5  2  0.33333333  0.66666667  0.00000000  0.25
  F0+  F6  2  0.33333333  0.66666667  0.50000000  0.25
  I0+  I7  2  0.33333333  0.66666667  0.50000000  0.25
  Ts0+  Ts8  2  0.33333333  0.66666667  0.50000000  0.5
  I0+  I9  6  0.13300000  0.70000000  0.01600000  1.0
