# generated using pymatgen
data_Si12SbN15
_symmetry_space_group_name_H-M  'P 3 1 c'
_cell_length_a   7.78090000
_cell_length_b   7.78090000
_cell_length_c   5.64070000
_cell_angle_alpha   90.00000000
_cell_angle_beta   90.00000000
_cell_angle_gamma   120.00000000
_symmetry_Int_Tables_number   159
_chemical_formula_structural   Si12SbN15
_chemical_formula_sum   'Si12 Sb1 N15'
_cell_volume   295.74901151
_cell_formula_units_Z   1
loop_
 _symmetry_equiv_pos_site_id
 _symmetry_equiv_pos_as_xyz
  1  'x, y, z'
  2  '-y, x-y, z'
  3  '-x+y, -x, z'
  4  'y, x, z+1/2'
  5  'x-y, -y, z+1/2'
  6  '-x, -x+y, z+1/2'
loop_
 _atom_type_symbol
 _atom_type_oxidation_number
  Si4+  4.0
  Sb3-  -3.0
  N3-  -3.0
loop_
 _atom_site_type_symbol
 _atom_site_label
 _atom_site_symmetry_multiplicity
 _atom_site_fract_x
 _atom_site_fract_y
 _atom_site_fract_z
 _atom_site_occupancy
  Si4+  Si0  6  0.08080000  0.51820000  0.68980000  1.0
  Si4+  Si1  6  0.08180000  0.83120000  0.97410000  1.0
  Sb3-  Sb2  2  0.00000000  0.00000000  0.00000000  0.5
  N3-  N3  2  0.00000000  0.00000000  0.00000000  0.5
  N3-  N4  6  0.00580000  0.68980000  0.72790000  1.0
  N3-  N5  6  0.04280000  0.38580000  0.96740000  1.0
  N3-  N6  2  0.33333333  0.66666667  0.63680000  1.0
