# generated using pymatgen
data_As1Mc0.25Bi0.75H30C12S2
_symmetry_space_group_name_H-M  'P 3 1 c'
_cell_length_a   9.23650000
_cell_length_b   9.23650000
_cell_length_c   6.33670000
_cell_angle_alpha   90.00000000
_cell_angle_beta   90.00000000
_cell_angle_gamma   120.00000000
_symmetry_Int_Tables_number   159
_chemical_formula_structural   As1Mc0.25Bi0.75H30C12S2
_chemical_formula_sum   'As1 Mc0.25 Bi0.75 H30 C12 S2'
_cell_volume   468.17546179
_cell_formula_units_Z   1
loop_
 _symmetry_equiv_pos_site_id
 _symmetry_equiv_pos_as_xyz
  1  'x, y, z'
  2  '-y, x-y, z'
  3  '-x+y, -x, z'
  4  'y, x, z+1/2'
  5  'x-y, -y, z+1/2'
  6  '-x, -x+y, z+1/2'
loop_
 _atom_site_type_symbol
 _atom_site_label
 _atom_site_symmetry_multiplicity
 _atom_site_fract_x
 _atom_site_fract_y
 _atom_site_fract_z
 _atom_site_occupancy
  As+  As0  2  0.33333333  0.66666667  0.77790000  0.5
  Mc+  Mc1  2  0.33333333  0.66666667  0.77790000  0.125
  Bi+  Bi2  2  0.33333333  0.66666667  0.77790000  0.375
  H  H3  6  0.03730000  0.75070000  0.75890000  1.0
  H  H4  6  0.03820000  0.42100000  0.66200000  1.0
  H  H5  6  0.04950000  0.18380000  0.74510000  1.0
  H  H6  6  0.13980000  0.31120000  0.93590000  1.0
  H  H7  6  0.17520000  0.41980000  0.50780000  1.0
  C  C8  6  0.14360000  0.85300000  0.78600000  1.0
  C  C9  6  0.14960000  0.43000000  0.65700000  1.0
  S  S10  2  0.33333333  0.66666667  0.15370000  1.0
