# generated using pymatgen
data_Fr2CsKRb2CrMoWSgI18
_symmetry_space_group_name_H-M  'P 63/m m c'
_cell_length_a   8.13700000
_cell_length_b   8.13700000
_cell_length_c   19.61900000
_cell_angle_alpha   90.00000000
_cell_angle_beta   90.00000000
_cell_angle_gamma   120.00000000
_symmetry_Int_Tables_number   194
_chemical_formula_structural   Fr2CsKRb2CrMoWSgI18
_chemical_formula_sum   'Fr2 Cs1 Rb2 K1 Cr1 Mo1 W1 Sg1 I18'
_cell_volume   1124.95753993
_cell_formula_units_Z   1
loop_
 _symmetry_equiv_pos_site_id
 _symmetry_equiv_pos_as_xyz
  1  'x, y, z'
  2  '-x, -y, -z'
  3  'x-y, x, z+1/2'
  4  '-x+y, -x, -z+1/2'
  5  '-y, x-y, z'
  6  'y, -x+y, -z'
  7  '-x, -y, z+1/2'
  8  'x, y, -z+1/2'
  9  '-x+y, -x, z'
  10  'x-y, x, -z'
  11  'y, -x+y, z+1/2'
  12  '-y, x-y, -z+1/2'
  13  '-y, -x, -z+1/2'
  14  'y, x, z+1/2'
  15  '-x, -x+y, -z'
  16  'x, x-y, z'
  17  '-x+y, y, -z+1/2'
  18  'x-y, -y, z+1/2'
  19  'y, x, -z'
  20  '-y, -x, z'
  21  'x, x-y, -z+1/2'
  22  '-x, -x+y, z+1/2'
  23  'x-y, -y, -z'
  24  '-x+y, y, z'
loop_
 _atom_type_symbol
 _atom_type_oxidation_number
  Fr0+  0.0
  Cs0+  0.0
  K0+  0.0
  Rb0+  0.0
  Cr0+  0.0
  Mo0+  0.0
  W0+  0.0
  I0+  0.0
  Sg0+  0.0
loop_
 _atom_site_type_symbol
 _atom_site_label
 _atom_site_symmetry_multiplicity
 _atom_site_fract_x
 _atom_site_fract_y
 _atom_site_fract_z
 _atom_site_occupancy
  Fr0+  Fr0  2  0.00000000  0.00000000  0.25000000  0.5
  Rb0+  Rb1  2  0.00000000  0.00000000  0.25000000  0.5
  Rb0+  Rb2  4  0.33333333  0.66666667  0.07670000  0.25
  Cs0+  Cs3  4  0.33333333  0.66666667  0.07670000  0.25
  Fr0+  Fr4  4  0.33333333  0.66666667  0.07670000  0.25
  K0+  K5  4  0.33333333  0.66666667  0.07670000  0.25
  Mo0+  Mo6  4  0.33333333  0.66666667  0.82830000  0.25
  Cr0+  Cr7  4  0.33333333  0.66666667  0.82830000  0.25
  W0+  W8  4  0.33333333  0.66666667  0.82830000  0.25
  Sg0+  Sg9  4  0.33333333  0.66666667  0.82830000  0.25
  I0+  I10  12  0.17040000  0.34080000  0.59240000  1.0
  I0+  I11  6  0.01060000  0.50530000  0.75000000  1.0
