# generated using pymatgen
data_Fl1.16666667Pb0.66666667C8.16666667N8O24
_symmetry_space_group_name_H-M  'P -4 21 c'
_cell_length_a   9.38000000
_cell_length_b   9.38000000
_cell_length_c   6.70000000
_cell_angle_alpha   90.00000000
_cell_angle_beta   90.00000000
_cell_angle_gamma   90.00000000
_symmetry_Int_Tables_number   114
_chemical_formula_structural
Fl1.16666667Pb0.66666667C8.16666667N8O24
_chemical_formula_sum
'Fl1.16666667 Pb0.66666667 C8.16666667 N8 O24'
_cell_volume   589.49548000
_cell_formula_units_Z   1
loop_
 _symmetry_equiv_pos_site_id
 _symmetry_equiv_pos_as_xyz
  1  'x, y, z'
  2  'y, -x, -z'
  3  '-x, -y, z'
  4  '-y, x, -z'
  5  'x+1/2, -y+1/2, -z+1/2'
  6  'y+1/2, x+1/2, z+1/2'
  7  '-x+1/2, y+1/2, -z+1/2'
  8  '-y+1/2, -x+1/2, z+1/2'
loop_
 _atom_site_type_symbol
 _atom_site_label
 _atom_site_symmetry_multiplicity
 _atom_site_fract_x
 _atom_site_fract_y
 _atom_site_fract_z
 _atom_site_occupancy
  Fl2+  Fl0  2  0.00000000  0.00000000  0.00000000
  0.5833333333333334
  C2+  C1  2  0.00000000  0.00000000  0.00000000
  0.08333333333333333
  Pb2+  Pb2  2  0.00000000  0.00000000  0.00000000
  0.3333333333333333
  C2+  C3  8  0.05900000  0.88100000  0.87600000  1
  N  N4  8  0.01500000  0.28400000  0.64100000  1
  O3+  O5  8  0.04400000  0.16200000  0.74400000  1
  O3+  O6  8  0.09900000  0.64400000  0.67500000  1
  O3+  O7  8  0.10400000  0.31800000  0.50600000  1
