# generated using pymatgen
data_CsNa5Sb2S3LvPo4
_symmetry_space_group_name_H-M  'P -4 21 c'
_cell_length_a   7.16530000
_cell_length_b   7.16530000
_cell_length_c   7.28960000
_cell_angle_alpha   90.00000000
_cell_angle_beta   90.00000000
_cell_angle_gamma   90.00000000
_symmetry_Int_Tables_number   114
_chemical_formula_structural   CsNa5Sb2S3LvPo4
_chemical_formula_sum   'Cs1 Na5 Sb2 S3 Lv1 Po4'
_cell_volume   374.25917401
_cell_formula_units_Z   1
loop_
 _symmetry_equiv_pos_site_id
 _symmetry_equiv_pos_as_xyz
  1  'x, y, z'
  2  'y, -x, -z'
  3  '-x, -y, z'
  4  '-y, x, -z'
  5  'x+1/2, -y+1/2, -z+1/2'
  6  'y+1/2, x+1/2, z+1/2'
  7  '-x+1/2, y+1/2, -z+1/2'
  8  '-y+1/2, -x+1/2, z+1/2'
loop_
 _atom_site_type_symbol
 _atom_site_label
 _atom_site_symmetry_multiplicity
 _atom_site_fract_x
 _atom_site_fract_y
 _atom_site_fract_z
 _atom_site_occupancy
  Cs+  Cs0  4  0.00000000  0.50000000  0.06010000  0.25
  Na+  Na1  4  0.00000000  0.50000000  0.06010000  0.75
  Na  Na2  2  0.00000000  0.00000000  0.50000000  1.0
  Sb  Sb3  2  0.00000000  0.00000000  0.00000000  1.0
  S+  S4  8  0.17240000  0.79440000  0.81710000  0.375
  Lv+  Lv5  8  0.17240000  0.79440000  0.81710000  0.125
  Po+  Po6  8  0.17240000  0.79440000  0.81710000  0.5
