# generated using pymatgen
data_Cu0.75P4Au3.25Xe8F40
_symmetry_space_group_name_H-M  'I -4 c 2'
_cell_length_a   8.46700000
_cell_length_b   8.46700000
_cell_length_c   12.74500000
_cell_angle_alpha   90.00000000
_cell_angle_beta   90.00000000
_cell_angle_gamma   90.00000000
_symmetry_Int_Tables_number   120
_chemical_formula_structural   Cu0.75P4Au3.25Xe8F40
_chemical_formula_sum   'Cu0.75 P4 Au3.25 Xe8 F40'
_cell_volume   913.69018431
_cell_formula_units_Z   1
loop_
 _symmetry_equiv_pos_site_id
 _symmetry_equiv_pos_as_xyz
  1  'x, y, z'
  2  'y, -x, -z'
  3  '-x, -y, z'
  4  '-y, x, -z'
  5  '-x+1/2, y+1/2, z'
  6  '-y+1/2, -x+1/2, -z'
  7  'x+1/2, -y+1/2, z'
  8  'y+1/2, x+1/2, -z'
  9  'x+1/2, y+1/2, z+1/2'
  10  'y+1/2, -x+1/2, -z+1/2'
  11  '-x+1/2, -y+1/2, z+1/2'
  12  '-y+1/2, x+1/2, -z+1/2'
  13  '-x, y, z+1/2'
  14  '-y, -x, -z+1/2'
  15  'x, -y, z+1/2'
  16  'y, x, -z+1/2'
loop_
 _atom_type_symbol
 _atom_type_oxidation_number
  Cu0+  0.0
  P0+  0.0
  Au0+  0.0
  Xe0+  0.0
  F0+  0.0
loop_
 _atom_site_type_symbol
 _atom_site_label
 _atom_site_symmetry_multiplicity
 _atom_site_fract_x
 _atom_site_fract_y
 _atom_site_fract_z
 _atom_site_occupancy
  P0+  P0  4  0.00000000  0.50000000  0.25000000  1.0
  Cu0+  Cu1  4  0.00000000  0.00000000  0.25000000  0.1875
  Au0+  Au2  4  0.00000000  0.00000000  0.25000000  0.8125
  Xe0+  Xe3  8  0.24700000  0.25300000  0.00000000  1.0
  F0+  F4  16  0.07890000  0.32830000  0.74900000  1.0
  F0+  F5  16  0.11200000  0.12400000  0.09740000  1.0
  F0+  F6  8  0.00000000  0.50000000  0.12490000  1.0
