# generated using pymatgen
data_Po1Se0.5S1.5
_symmetry_space_group_name_H-M  'P 31 2 1'
_cell_length_a   4.05200000
_cell_length_b   4.05200000
_cell_length_c   5.03800000
_cell_angle_alpha   90.00000000
_cell_angle_beta   90.00000000
_cell_angle_gamma   120.00000000
_symmetry_Int_Tables_number   152
_chemical_formula_structural   Po1Se0.5S1.5
_chemical_formula_sum   'Po1 Se0.5 S1.5'
_cell_volume   71.63539637
_cell_formula_units_Z   1
loop_
 _symmetry_equiv_pos_site_id
 _symmetry_equiv_pos_as_xyz
  1  'x, y, z'
  2  '-y, x-y, z+1/3'
  3  '-x+y, -x, z+2/3'
  4  'y, x, -z'
  5  'x-y, -y, -z+2/3'
  6  '-x, -x+y, -z+1/3'
loop_
 _atom_type_symbol
 _atom_type_oxidation_number
  Po+  1.0
  Se+  1.0
  S+  1.0
loop_
 _atom_site_type_symbol
 _atom_site_label
 _atom_site_symmetry_multiplicity
 _atom_site_fract_x
 _atom_site_fract_y
 _atom_site_fract_z
 _atom_site_occupancy
  S+  S0  3  0.00000000  0.23730000  0.66666667  0.5
  Se+  Se1  3  0.00000000  0.23730000  0.66666667
  0.16666666666666666
  Po+  Po2  3  0.00000000  0.23730000  0.66666667
  0.3333333333333333
