# generated using pymatgen
data_Cs6Nh1Tl0.66666667In0.33333333Ga1B15O30
_symmetry_space_group_name_H-M  'P 31 2 1'
_cell_length_a   7.02900000
_cell_length_b   7.02900000
_cell_length_c   20.97000000
_cell_angle_alpha   90.00000000
_cell_angle_beta   90.00000000
_cell_angle_gamma   120.00000000
_symmetry_Int_Tables_number   152
_chemical_formula_structural
Cs6Nh1Tl0.66666667In0.33333333Ga1B15O30
_chemical_formula_sum
'Cs6 Nh1 Tl0.66666667 In0.33333333 Ga1 B15 O30'
_cell_volume   897.25554058
_cell_formula_units_Z   1
loop_
 _symmetry_equiv_pos_site_id
 _symmetry_equiv_pos_as_xyz
  1  'x, y, z'
  2  '-y, x-y, z+1/3'
  3  '-x+y, -x, z+2/3'
  4  'y, x, -z'
  5  'x-y, -y, -z+2/3'
  6  '-x, -x+y, -z+1/3'
loop_
 _atom_site_type_symbol
 _atom_site_label
 _atom_site_symmetry_multiplicity
 _atom_site_fract_x
 _atom_site_fract_y
 _atom_site_fract_z
 _atom_site_occupancy
  Cs  Cs0  6  0.06028000  0.67390000  0.44746333  1.0
  Nh+  Nh1  3  0.00000000  0.60490000  0.66666667
  0.3333333333333333
  In+  In2  3  0.00000000  0.60490000  0.66666667
  0.1111111111111111
  Ga+  Ga3  3  0.00000000  0.60490000  0.66666667
  0.3333333333333333
  Tl+  Tl4  3  0.00000000  0.60490000  0.66666667
  0.2222222222222222
  B  B5  6  0.03600000  0.42300000  0.05610000  1.0
  B  B6  6  0.24100000  0.48900000  0.58846667  1.0
  B  B7  3  0.00000000  0.52700000  0.16670000  1.0
  O  O8  6  0.05790000  0.49080000  0.60356667  1.0
  O  O9  6  0.10120000  0.45900000  0.11760000  1.0
  O  O10  6  0.13730000  0.58700000  0.29563333  1.0
  O  O11  6  0.14340000  0.37120000  0.01320000  1.0
  O  O12  6  0.17080000  0.73280000  0.19333333  1.0
