# generated using pymatgen
data_Ga3Po0.33333333As3Se5.66666667O6
_symmetry_space_group_name_H-M  'P 31 2 1'
_cell_length_a   5.02500000
_cell_length_b   5.02500000
_cell_length_c   11.40800000
_cell_angle_alpha   90.00000000
_cell_angle_beta   90.00000000
_cell_angle_gamma   120.00000000
_symmetry_Int_Tables_number   152
_chemical_formula_structural   Ga3Po0.33333333As3Se5.66666667O6
_chemical_formula_sum   'Ga3 Po0.33333333 As3 Se5.66666667 O6'
_cell_volume   249.46652437
_cell_formula_units_Z   1
loop_
 _symmetry_equiv_pos_site_id
 _symmetry_equiv_pos_as_xyz
  1  'x, y, z'
  2  '-y, x-y, z+1/3'
  3  '-x+y, -x, z+2/3'
  4  'y, x, -z'
  5  'x-y, -y, -z+2/3'
  6  '-x, -x+y, -z+1/3'
loop_
 _atom_type_symbol
 _atom_type_oxidation_number
  Ga3+  3.0
  Po2-  -2.0
  As5+  5.0
  Se2-  -2.0
  O2-  -2.0
loop_
 _atom_site_type_symbol
 _atom_site_label
 _atom_site_symmetry_multiplicity
 _atom_site_fract_x
 _atom_site_fract_y
 _atom_site_fract_z
 _atom_site_occupancy
  Ga3+  Ga0  3  0.00000000  0.45330000  0.66666667  1.0
  As5+  As1  3  0.00000000  0.45220000  0.16663333  1.0
  Po2-  Po2  6  0.11200000  0.71000000  0.79366667
  0.05555555555555555
  Se2-  Se3  6  0.11200000  0.71000000  0.79366667
  0.9444444444444444
  O2-  O4  6  0.08600000  0.68500000  0.28206667  1.0
