# generated using pymatgen
data_Si0.66666667Sn0.33333333Pb0.33333333C1.66666667O6
_symmetry_space_group_name_H-M  'P 31 2 1'
_cell_length_a   4.70500000
_cell_length_b   4.70500000
_cell_length_c   5.25000000
_cell_angle_alpha   90.00000000
_cell_angle_beta   90.00000000
_cell_angle_gamma   120.00000000
_symmetry_Int_Tables_number   152
_chemical_formula_structural
Si0.66666667Sn0.33333333Pb0.33333333C1.66666667O6
_chemical_formula_sum
'Si0.66666667 Sn0.33333333 Pb0.33333333 C1.66666667 O6'
_cell_volume   100.64893657
_cell_formula_units_Z   1
loop_
 _symmetry_equiv_pos_site_id
 _symmetry_equiv_pos_as_xyz
  1  'x, y, z'
  2  '-y, x-y, z+1/3'
  3  '-x+y, -x, z+2/3'
  4  'y, x, -z'
  5  'x-y, -y, -z+2/3'
  6  '-x, -x+y, -z+1/3'
loop_
 _atom_site_type_symbol
 _atom_site_label
 _atom_site_symmetry_multiplicity
 _atom_site_fract_x
 _atom_site_fract_y
 _atom_site_fract_z
 _atom_site_occupancy
  C+  C0  3  0.00000000  0.45320000  0.66666667  0.5555555555555556
  Si+  Si1  3  0.00000000  0.45320000  0.66666667
  0.2222222222222222
  Sn+  Sn2  3  0.00000000  0.45320000  0.66666667
  0.1111111111111111
  Pb+  Pb3  3  0.00000000  0.45320000  0.66666667
  0.1111111111111111
  O  O4  6  0.10490000  0.71190000  0.43266667  1
