# generated using pymatgen
data_Po1.33333333Te0.33333333Se0.33333333O1
_symmetry_space_group_name_H-M  'P 31 2 1'
_cell_length_a   3.95600000
_cell_length_b   3.95600000
_cell_length_c   5.06900000
_cell_angle_alpha   90.00000000
_cell_angle_beta   90.00000000
_cell_angle_gamma   120.00000000
_symmetry_Int_Tables_number   152
_chemical_formula_structural   Po1.33333333Te0.33333333Se0.33333333O1
_chemical_formula_sum   'Po1.33333333 Te0.33333333 Se0.33333333 O1'
_cell_volume   68.70138443
_cell_formula_units_Z   1
loop_
 _symmetry_equiv_pos_site_id
 _symmetry_equiv_pos_as_xyz
  1  'x, y, z'
  2  '-y, x-y, z+1/3'
  3  '-x+y, -x, z+2/3'
  4  'y, x, -z'
  5  'x-y, -y, -z+2/3'
  6  '-x, -x+y, -z+1/3'
loop_
 _atom_type_symbol
 _atom_type_oxidation_number
  Po+  1.0
  Te+  1.0
  Se+  1.0
  O+  1.0
loop_
 _atom_site_type_symbol
 _atom_site_label
 _atom_site_symmetry_multiplicity
 _atom_site_fract_x
 _atom_site_fract_y
 _atom_site_fract_z
 _atom_site_occupancy
  Po+  Po0  3  0.00000000  0.24810000  0.66666667
  0.4444444444444444
  Te+  Te1  3  0.00000000  0.24810000  0.66666667
  0.1111111111111111
  Se+  Se2  3  0.00000000  0.24810000  0.66666667
  0.1111111111111111
  O+  O3  3  0.00000000  0.24810000  0.66666667  0.3333333333333333
