# generated using pymatgen
data_Fr0.5Rb2.5Cu0.5Ag4.5P3Au0.5Rg0.5O12
_symmetry_space_group_name_H-M  'P 31 1 2'
_cell_length_a   6.19000000
_cell_length_b   6.19000000
_cell_length_c   9.01500000
_cell_angle_alpha   90.00000000
_cell_angle_beta   90.00000000
_cell_angle_gamma   120.00000000
_symmetry_Int_Tables_number   151
_chemical_formula_structural   Fr0.5Rb2.5Cu0.5Ag4.5P3Au0.5Rg0.5O12
_chemical_formula_sum   'Fr0.5 Rb2.5 Cu0.5 Ag4.5 P3 Au0.5 Rg0.5 O12'
_cell_volume   299.14218451
_cell_formula_units_Z   1
loop_
 _symmetry_equiv_pos_site_id
 _symmetry_equiv_pos_as_xyz
  1  'x, y, z'
  2  '-y, x-y, z+1/3'
  3  '-x+y, -x, z+2/3'
  4  '-y, -x, -z+2/3'
  5  '-x+y, y, -z+1/3'
  6  'x, x-y, -z'
loop_
 _atom_type_symbol
 _atom_type_oxidation_number
  Fr+  1.0
  Rb+  1.0
  Cu+  1.0
  Ag+  1.0
  P5+  5.0
  Au+  1.0
  O2-  -2.0
  Rg+  1.0
loop_
 _atom_site_type_symbol
 _atom_site_label
 _atom_site_symmetry_multiplicity
 _atom_site_fract_x
 _atom_site_fract_y
 _atom_site_fract_z
 _atom_site_occupancy
  Ag+  Ag0  3  0.16360000  0.08180000  0.00000000  0.5
  Au+  Au1  3  0.16360000  0.08180000  0.00000000
  0.16666666666666666
  Cu+  Cu2  3  0.16360000  0.08180000  0.00000000
  0.16666666666666666
  Rg+  Rg3  3  0.16360000  0.08180000  0.00000000
  0.16666666666666666
  Fr+  Fr4  3  0.62000000  0.24000000  0.16670000
  0.16666666666666666
  Rb+  Rb5  3  0.62000000  0.24000000  0.16670000
  0.8333333333333334
  Ag+  Ag6  3  0.20510000  0.41020000  0.66666667  1.0
  P5+  P7  3  0.50870000  0.01740000  0.66666667  1.0
  O2-  O8  6  0.14560000  0.41230000  0.91863333  1.0
  O2-  O9  6  0.46090000  0.18590000  0.77530000  1.0
