# generated using pymatgen
data_Ti6Cl14Ts3F
_symmetry_space_group_name_H-M  'P 31 1 2'
_cell_length_a   6.14000000
_cell_length_b   6.14000000
_cell_length_c   17.40000000
_cell_angle_alpha   90.00000000
_cell_angle_beta   90.00000000
_cell_angle_gamma   120.00000000
_symmetry_Int_Tables_number   151
_chemical_formula_structural   Ti6Cl14Ts3F
_chemical_formula_sum   'Ti6 Cl14.0 Ts3 F1.0'
_cell_volume   568.08931684
_cell_formula_units_Z   1
loop_
 _symmetry_equiv_pos_site_id
 _symmetry_equiv_pos_as_xyz
  1  'x, y, z'
  2  '-y, x-y, z+1/3'
  3  '-x+y, -x, z+2/3'
  4  '-y, -x, -z+2/3'
  5  '-x+y, y, -z+1/3'
  6  'x, x-y, -z'
loop_
 _atom_type_symbol
 _atom_type_oxidation_number
  Ti0+  0.0
  Cl0+  0.0
  F0+  0.0
  Ts0+  0.0
loop_
 _atom_site_type_symbol
 _atom_site_label
 _atom_site_symmetry_multiplicity
 _atom_site_fract_x
 _atom_site_fract_y
 _atom_site_fract_z
 _atom_site_occupancy
  Ti0+  Ti0  3  0.11110000  0.22220000  0.66666667  1.0
  Ti0+  Ti1  3  0.44440000  0.22220000  0.00000000  1.0
  Cl0+  Cl2  6  0.44440000  0.22220000  0.25396667  1.0
  Cl0+  Cl3  6  0.11110000  0.22220000  0.41270000
  0.3333333333333333
  Ts0+  Ts4  6  0.11110000  0.22220000  0.41270000  0.5
  F0+  F5  6  0.11110000  0.22220000  0.41270000
  0.16666666666666666
  Cl0+  Cl6  6  0.11120000  0.55560000  0.25396667  1.0
