# generated using pymatgen
data_Y4.11111111Lu1.66666667Lr0.11111111Sc0.11111111Mn6O18
_symmetry_space_group_name_H-M  'P 63 c m'
_cell_length_a   6.18081000
_cell_length_b   6.18081000
_cell_length_c   11.37786000
_cell_angle_alpha   90.00000000
_cell_angle_beta   90.00000000
_cell_angle_gamma   120.00000000
_symmetry_Int_Tables_number   185
_chemical_formula_structural
Y4.11111111Lu1.66666667Lr0.11111111Sc0.11111111Mn6O18
_chemical_formula_sum
'Y4.11111111 Lu1.66666667 Lr0.11111111 Sc0.11111111 Mn6 O18'
_cell_volume   376.42807279
_cell_formula_units_Z   1
loop_
 _symmetry_equiv_pos_site_id
 _symmetry_equiv_pos_as_xyz
  1  'x, y, z'
  2  'x-y, x, z+1/2'
  3  '-y, x-y, z'
  4  '-x, -y, z+1/2'
  5  '-x+y, -x, z'
  6  'y, -x+y, z+1/2'
  7  'y, x, z'
  8  'x, x-y, z+1/2'
  9  'x-y, -y, z'
  10  '-y, -x, z+1/2'
  11  '-x, -x+y, z'
  12  '-x+y, y, z+1/2'
loop_
 _atom_site_type_symbol
 _atom_site_label
 _atom_site_symmetry_multiplicity
 _atom_site_fract_x
 _atom_site_fract_y
 _atom_site_fract_z
 _atom_site_occupancy
  Y  Y0  4  0.33333333  0.66666667  0.23440000  1.0
  Lu+  Lu1  2  0.00000000  0.00000000  0.27040000
  0.8333333333333334
  Y+  Y2  2  0.00000000  0.00000000  0.27040000  0.05555555555555555
  Lr+  Lr3  2  0.00000000  0.00000000  0.27040000
  0.05555555555555555
  Sc+  Sc4  2  0.00000000  0.00000000  0.27040000
  0.05555555555555555
  Mn  Mn5  6  0.00000000  0.32600000  0.00000000  1.0
  O  O6  6  0.00000000  0.31280000  0.15890000  1.0
  O  O7  6  0.00000000  0.35590000  0.83230000  1.0
  O  O8  4  0.33333333  0.66666667  0.01220000  1.0
  O  O9  2  0.00000000  0.00000000  0.47810000  1.0
