# generated using pymatgen
data_Ba12.33333333Ra5Sr0.33333333Yb6Mg0.33333333B18O54
_symmetry_space_group_name_H-M  'P 63 c m'
_cell_length_a   9.41100000
_cell_length_b   9.41100000
_cell_length_c   17.48100000
_cell_angle_alpha   90.00000000
_cell_angle_beta   90.00000000
_cell_angle_gamma   120.00000000
_symmetry_Int_Tables_number   185
_chemical_formula_structural
Ba12.33333333Ra5Sr0.33333333Yb6Mg0.33333333B18O54
_chemical_formula_sum
'Ba12.33333333 Ra5 Sr0.33333333 Yb6 Mg0.33333333 B18 O54'
_cell_volume   1340.81373875
_cell_formula_units_Z   1
loop_
 _symmetry_equiv_pos_site_id
 _symmetry_equiv_pos_as_xyz
  1  'x, y, z'
  2  'x-y, x, z+1/2'
  3  '-y, x-y, z'
  4  '-x, -y, z+1/2'
  5  '-x+y, -x, z'
  6  'y, -x+y, z+1/2'
  7  'y, x, z'
  8  'x, x-y, z+1/2'
  9  'x-y, -y, z'
  10  '-y, -x, z+1/2'
  11  '-x, -x+y, z'
  12  '-x+y, y, z+1/2'
loop_
 _atom_type_symbol
 _atom_type_oxidation_number
  Ba0+  0.0
  Ra0+  0.0
  Sr0+  0.0
  Yb0+  0.0
  Mg0+  0.0
  B0+  0.0
  O0+  0.0
loop_
 _atom_site_type_symbol
 _atom_site_label
 _atom_site_symmetry_multiplicity
 _atom_site_fract_x
 _atom_site_fract_y
 _atom_site_fract_z
 _atom_site_occupancy
  Ba0+  Ba0  6  0.00000000  0.34290000  0.62706000  1.0
  Ba0+  Ba1  4  0.33333333  0.66666667  0.26940000  1.0
  Ba0+  Ba2  2  0.00000000  0.00000000  0.21820000  1.0
  Mg0+  Mg3  6  0.00000000  0.32270000  0.86928000
  0.05555555555555555
  Sr0+  Sr4  6  0.00000000  0.32270000  0.86928000
  0.05555555555555555
  Ra0+  Ra5  6  0.00000000  0.32270000  0.86928000
  0.8333333333333334
  Ba0+  Ba6  6  0.00000000  0.32270000  0.86928000
  0.05555555555555555
  Yb0+  Yb7  4  0.33333333  0.66666667  0.49610000  1.0
  Yb0+  Yb8  2  0.00000000  0.00000000  0.00000000  1.0
  B0+  B9  6  0.00000000  0.33200000  0.42200000  1.0
  B0+  B10  6  0.00000000  0.34100000  0.07500000  1.0
  B0+  B11  6  0.00000000  0.34500000  0.24600000  1.0
  O0+  O12  12  0.13800000  0.47600000  0.42100000  1.0
  O0+  O13  12  0.15000000  0.47800000  0.07400000  1.0
  O0+  O14  12  0.15100000  0.33600000  0.24600000  1.0
  O0+  O15  6  0.00000000  0.18700000  0.08400000  1.0
  O0+  O16  6  0.00000000  0.19600000  0.43200000  1.0
  O0+  O17  6  0.00000000  0.48300000  0.24700000  1.0
