# generated using pymatgen
data_Fr1Li0.5Bi0.5As1H8.5C10Fl1Pb1N10Mc0.5Cl2
_symmetry_space_group_name_H-M  'P 1 c 1'
_cell_length_a   4.28960000
_cell_length_b   5.46450000
_cell_length_c   17.52800000
_cell_angle_alpha   90.00000000
_cell_angle_beta   91.44900000
_cell_angle_gamma   90.00000000
_symmetry_Int_Tables_number   7
_chemical_formula_structural
Fr1Li0.5Bi0.5As1H8.5C10Fl1Pb1N10Mc0.5Cl2
_chemical_formula_sum
'Fr1 Li0.5 Bi0.5 As1 H8.5 C10 Fl1 Pb1 N10 Mc0.5 Cl2'
_cell_volume   410.73403791
_cell_formula_units_Z   1
loop_
 _symmetry_equiv_pos_site_id
 _symmetry_equiv_pos_as_xyz
  1  'x, y, z'
  2  'x, -y, z+1/2'
loop_
 _atom_site_type_symbol
 _atom_site_label
 _atom_site_symmetry_multiplicity
 _atom_site_fract_x
 _atom_site_fract_y
 _atom_site_fract_z
 _atom_site_occupancy
  Fr+  Fr0  2  0.45800000  0.11400000  0.50320000  0.5
  Li+  Li1  2  0.45800000  0.11400000  0.50320000  0.25
  H+  H2  2  0.45800000  0.11400000  0.50320000  0.25
  H  H3  2  0.07460000  0.40740000  0.67230000  1.0
  H  H4  2  0.40800000  0.14700000  0.41830000  1.0
  H  H5  2  0.42250000  0.36360000  0.26160000  1.0
  H  H6  2  0.60050000  0.00030000  0.69140000  1.0
  C  C7  2  0.00550000  0.37690000  0.02870000  1.0
  C  C8  2  0.17750000  0.44650000  0.16267000  1.0
  C  C9  2  0.36840000  0.32180000  0.21159000  1.0
  C  C10  2  0.46630000  0.11810000  0.17118000  1.0
  C  C11  2  0.67530000  0.37890000  0.46420000  1.0
  Fl+  Fl12  2  0.91620000  0.31570000  0.90615000  0.5
  Pb+  Pb13  2  0.91620000  0.31570000  0.90615000  0.5
  N  N14  2  0.06910000  0.23900000  0.96811000  1.0
  N  N15  2  0.34790000  0.11140000  0.10090000  1.0
  N  N16  2  0.72450000  0.49960000  0.39792000  1.0
  As+  As17  2  0.81390000  0.43490000  0.53202000  0.5
  Bi+  Bi18  2  0.81390000  0.43490000  0.53202000  0.25
  Mc+  Mc19  2  0.81390000  0.43490000  0.53202000  0.25
  N  N20  2  0.16610000  0.31500000  0.09652000  1.0
  N  N21  2  0.47670000  0.19420000  0.46217000  1.0
  Cl  Cl22  2  0.98605000  0.14477000  0.82490000  1.0
