# generated using pymatgen
data_Cu7AgH8C8(N3Cl2)4
_symmetry_space_group_name_H-M  'P n n a'
_cell_length_a   6.77160000
_cell_length_b   6.88850000
_cell_length_c   12.36050000
_cell_angle_alpha   90.00000000
_cell_angle_beta   90.00000000
_cell_angle_gamma   90.00000000
_symmetry_Int_Tables_number   52
_chemical_formula_structural   Cu7AgH8C8(N3Cl2)4
_chemical_formula_sum   'Cu7 Ag1 H8 C8 N12 Cl8'
_cell_volume   576.56994226
_cell_formula_units_Z   1
loop_
 _symmetry_equiv_pos_site_id
 _symmetry_equiv_pos_as_xyz
  1  'x, y, z'
  2  '-x, -y, -z'
  3  '-x+1/2, -y, z'
  4  'x+1/2, y, -z'
  5  'x, -y+1/2, -z+1/2'
  6  '-x, y+1/2, z+1/2'
  7  '-x+1/2, y+1/2, -z+1/2'
  8  'x+1/2, -y+1/2, z+1/2'
loop_
 _atom_site_type_symbol
 _atom_site_label
 _atom_site_symmetry_multiplicity
 _atom_site_fract_x
 _atom_site_fract_y
 _atom_site_fract_z
 _atom_site_occupancy
  Cu  Cu0  4  0.00000000  0.00000000  0.50000000  1.0
  Cu+  Cu1  4  0.25000000  0.00000000  0.95975000  0.75
  Ag+  Ag2  4  0.25000000  0.00000000  0.95975000  0.25
  H  H3  8  0.03970000  0.51050000  0.25970000  1.0
  C  C4  8  0.09390000  0.00550000  0.73634000  1.0
  N  N5  8  0.14890000  0.00310000  0.63376000  1.0
  N  N6  4  0.25000000  0.00000000  0.80380000  1.0
  Cl  Cl7  8  0.21284000  0.24531000  0.42441000  1.0
