# generated using pymatgen
data_Si4Po0.5C16Se2.5S1O12
_symmetry_space_group_name_H-M  'P 2 3'
_cell_length_a   9.85000000
_cell_length_b   9.85000000
_cell_length_c   9.85000000
_cell_angle_alpha   90.00000000
_cell_angle_beta   90.00000000
_cell_angle_gamma   90.00000000
_symmetry_Int_Tables_number   195
_chemical_formula_structural   Si4Po0.5C16Se2.5S1O12
_chemical_formula_sum   'Si4 Po0.5 C16 Se2.5 S1 O12'
_cell_volume   955.67162500
_cell_formula_units_Z   1
loop_
 _symmetry_equiv_pos_site_id
 _symmetry_equiv_pos_as_xyz
  1  'x, y, z'
  2  '-x, -y, z'
  3  'x, -y, -z'
  4  '-x, y, -z'
  5  'z, x, y'
  6  'z, -x, -y'
  7  '-z, x, -y'
  8  '-z, -x, y'
  9  'y, z, x'
  10  '-y, z, -x'
  11  '-y, -z, x'
  12  'y, -z, -x'
loop_
 _atom_site_type_symbol
 _atom_site_label
 _atom_site_symmetry_multiplicity
 _atom_site_fract_x
 _atom_site_fract_y
 _atom_site_fract_z
 _atom_site_occupancy
  Si  Si0  4  0.15000000  0.15000000  0.15000000  1
  Po2+  Po1  4  0.25000000  0.25000000  0.25000000  0.125
  S2+  S2  4  0.25000000  0.25000000  0.25000000  0.25
  Se2+  Se3  4  0.25000000  0.25000000  0.25000000  0.625
  C2+  C4  12  0.05000000  0.31000000  0.91000000  1
  C2+  C5  4  0.32000000  0.32000000  0.32000000  1
  O2+  O6  12  0.01000000  0.09000000  0.24000000  1
