# generated using pymatgen
data_U4Si0.16666667Sn1.5Pb2.16666667Fl0.16666667Se8O32
_symmetry_space_group_name_H-M  'P m c 21'
_cell_length_a   11.99110000
_cell_length_b   5.78140000
_cell_length_c   11.25250000
_cell_angle_alpha   90.00000000
_cell_angle_beta   90.00000000
_cell_angle_gamma   90.00000000
_symmetry_Int_Tables_number   26
_chemical_formula_structural
U4Si0.16666667Sn1.5Pb2.16666667Fl0.16666667Se8O32
_chemical_formula_sum
'U4 Si0.16666667 Sn1.5 Pb2.16666667 Fl0.16666667 Se8 O32'
_cell_volume   780.08345069
_cell_formula_units_Z   1
loop_
 _symmetry_equiv_pos_site_id
 _symmetry_equiv_pos_as_xyz
  1  'x, y, z'
  2  '-x, -y, z+1/2'
  3  '-x, y, z'
  4  'x, -y, z+1/2'
loop_
 _atom_site_type_symbol
 _atom_site_label
 _atom_site_symmetry_multiplicity
 _atom_site_fract_x
 _atom_site_fract_y
 _atom_site_fract_z
 _atom_site_occupancy
  U  U0  4  0.25133000  0.00309000  0.22526000  1.0
  Pb  Pb1  2  0.00000000  0.04743000  0.97665000  1.0
  Si+  Si2  2  0.50000000  0.48962000  0.77563000
  0.08333333333333333
  Pb+  Pb3  2  0.50000000  0.48962000  0.77563000
  0.08333333333333333
  Fl+  Fl4  2  0.50000000  0.48962000  0.77563000
  0.08333333333333333
  Sn+  Sn5  2  0.50000000  0.48962000  0.77563000  0.75
  Se  Se6  4  0.23407000  0.37615000  0.44977000  1.0
  Se  Se7  2  0.00000000  0.40170000  0.71592000  1.0
  Se  Se8  2  0.50000000  0.13800000  0.03151000  1.0
  O  O9  4  0.10870000  0.25130000  0.77550000  1.0
  O  O10  4  0.14850000  0.16600000  0.39150000  1.0
  O  O11  4  0.15810000  0.17250000  0.13600000  1.0
  O  O12  4  0.28050000  0.25740000  0.57770000  1.0
  O  O13  4  0.33380000  0.31160000  0.34770000  1.0
  O  O14  4  0.34140000  0.17170000  0.81580000  1.0
  O  O15  4  0.39450000  0.16340000  0.13050000  1.0
  O  O16  2  0.00000000  0.32040000  0.57320000  1.0
  O  O17  2  0.50000000  0.40710000  0.97730000  1.0
