# generated using pymatgen
data_Cs0.5Rb2K1Ga0.5B1.5H0.5Au6
_symmetry_space_group_name_H-M  'P m m a'
_cell_length_a   5.65960000
_cell_length_b   6.74140000
_cell_length_c   9.04450000
_cell_angle_alpha   90.00000000
_cell_angle_beta   90.00000000
_cell_angle_gamma   90.00000000
_symmetry_Int_Tables_number   51
_chemical_formula_structural   Cs0.5Rb2K1Ga0.5B1.5H0.5Au6
_chemical_formula_sum   'Cs0.5 Rb2 K1 Ga0.5 B1.5 H0.5 Au6'
_cell_volume   345.08048338
_cell_formula_units_Z   1
loop_
 _symmetry_equiv_pos_site_id
 _symmetry_equiv_pos_as_xyz
  1  'x, y, z'
  2  '-x, -y, -z'
  3  '-x+1/2, -y, z'
  4  'x+1/2, y, -z'
  5  'x+1/2, -y, -z'
  6  '-x+1/2, y, z'
  7  '-x, y, -z'
  8  'x, -y, z'
loop_
 _atom_site_type_symbol
 _atom_site_label
 _atom_site_symmetry_multiplicity
 _atom_site_fract_x
 _atom_site_fract_y
 _atom_site_fract_z
 _atom_site_occupancy
  Rb  Rb0  2  0.25000000  0.00000000  0.37410000  1.0
  H+  H1  2  0.25000000  0.50000000  0.13280000  0.25
  Cs+  Cs2  2  0.25000000  0.50000000  0.13280000  0.25
  K+  K3  2  0.25000000  0.50000000  0.13280000  0.5
  Ga+  Ga4  2  0.25000000  0.50000000  0.57444000  0.25
  B+  B5  2  0.25000000  0.50000000  0.57444000  0.75
  Au  Au6  4  0.25000000  0.20949000  0.78478000  1.0
  Au  Au7  2  0.00000000  0.00000000  0.00000000  1.0
