# generated using pymatgen
data_Te4Rg1.5Cu0.5Ts0.5At0.5Br0.5F0.5
_symmetry_space_group_name_H-M  'P m m b'
_cell_length_a   4.05600000
_cell_length_b   12.57900000
_cell_length_c   4.74100000
_cell_angle_alpha   90.00000000
_cell_angle_beta   90.00000000
_cell_angle_gamma   90.00000000
_symmetry_Int_Tables_number   51
_chemical_formula_structural   Te4Rg1.5Cu0.5Ts0.5At0.5Br0.5F0.5
_chemical_formula_sum   'Te4 Rg1.5 Cu0.5 Ts0.5 At0.5 Br0.5 F0.5'
_cell_volume   241.88783018
_cell_formula_units_Z   1
loop_
 _symmetry_equiv_pos_site_id
 _symmetry_equiv_pos_as_xyz
  1  'x, y, z'
  2  '-x, -y, -z'
  3  '-x, -y+1/2, z'
  4  'x, y+1/2, -z'
  5  '-x, y+1/2, -z'
  6  'x, -y+1/2, z'
  7  'x, -y, -z'
  8  '-x, y, z'
loop_
 _atom_site_type_symbol
 _atom_site_label
 _atom_site_symmetry_multiplicity
 _atom_site_fract_x
 _atom_site_fract_y
 _atom_site_fract_z
 _atom_site_occupancy
  Te  Te0  4  0.50000000  0.08158000  0.19745000  1.0
  Rg+  Rg1  2  0.00000000  0.00000000  0.50000000  0.75
  Cu+  Cu2  2  0.00000000  0.00000000  0.50000000  0.25
  Ts+  Ts3  2  0.00000000  0.25000000  0.73103000  0.25
  Br+  Br4  2  0.00000000  0.25000000  0.73103000  0.25
  At+  At5  2  0.00000000  0.25000000  0.73103000  0.25
  F+  F6  2  0.00000000  0.25000000  0.73103000  0.25
