# generated using pymatgen
data_Pd2.66666667Ds1.33333333S4O40
_symmetry_space_group_name_H-M  'P 43 21 2'
_cell_length_a   6.78030000
_cell_length_b   6.78030000
_cell_length_c   18.28800000
_cell_angle_alpha   90.00000000
_cell_angle_beta   90.00000000
_cell_angle_gamma   90.00000000
_symmetry_Int_Tables_number   96
_chemical_formula_structural   Pd2.66666667Ds1.33333333S4O40
_chemical_formula_sum   'Pd2.66666667 Ds1.33333333 S4 O40'
_cell_volume   840.74449643
_cell_formula_units_Z   1
loop_
 _symmetry_equiv_pos_site_id
 _symmetry_equiv_pos_as_xyz
  1  'x, y, z'
  2  '-y+1/2, x+1/2, z+3/4'
  3  '-x, -y, z+1/2'
  4  'y+1/2, -x+1/2, z+1/4'
  5  'x+1/2, -y+1/2, -z+1/4'
  6  '-y, -x, -z+1/2'
  7  '-x+1/2, y+1/2, -z+3/4'
  8  'y, x, -z'
loop_
 _atom_site_type_symbol
 _atom_site_label
 _atom_site_symmetry_multiplicity
 _atom_site_fract_x
 _atom_site_fract_y
 _atom_site_fract_z
 _atom_site_occupancy
  Pd+  Pd0  4  0.21039000  0.21039000  0.50000000
  0.6666666666666666
  Ds+  Ds1  4  0.21039000  0.21039000  0.50000000
  0.3333333333333333
  S  S2  4  0.20910000  0.79090000  0.75000000  1
  O  O3  8  0.02989000  0.74399000  0.30617000  1
  O  O4  8  0.04673000  0.82716000  0.05278000  1
  O  O5  8  0.06596000  0.35637000  0.41507000  1
  O  O6  8  0.07661000  0.32770000  0.99950000  1
  O  O7  8  0.11965000  0.87988000  0.81604000  1
