# generated using pymatgen
data_FrRbNa2SiSn2GeH36Pb2(C11S2)4
_symmetry_space_group_name_H-M  'P b a 2'
_cell_length_a   17.19200000
_cell_length_b   8.55300000
_cell_length_c   8.34200000
_cell_angle_alpha   90.00000000
_cell_angle_beta   90.00000000
_cell_angle_gamma   90.00000000
_symmetry_Int_Tables_number   32
_chemical_formula_structural   FrRbNa2SiSn2GeH36Pb2(C11S2)4
_chemical_formula_sum   'Fr1 Rb1 Na2 Si1 Sn2 Ge1 H36 Pb2 C44 S8'
_cell_volume   1226.63417419
_cell_formula_units_Z   1
loop_
 _symmetry_equiv_pos_site_id
 _symmetry_equiv_pos_as_xyz
  1  'x, y, z'
  2  '-x, -y, z'
  3  'x+1/2, -y+1/2, z'
  4  '-x+1/2, y+1/2, z'
loop_
 _atom_site_type_symbol
 _atom_site_label
 _atom_site_symmetry_multiplicity
 _atom_site_fract_x
 _atom_site_fract_y
 _atom_site_fract_z
 _atom_site_occupancy
  Rb+  Rb0  4  0.21310000  0.98810000  0.78140000  0.25
  Na+  Na1  4  0.21310000  0.98810000  0.78140000  0.5
  Fr+  Fr2  4  0.21310000  0.98810000  0.78140000  0.25
  Sn  Sn3  2  0.00000000  0.50000000  0.96750000  1.0
  Ge+  Ge4  4  0.16970000  0.77530000  0.79880000  0.25
  Si+  Si5  4  0.16970000  0.77530000  0.79880000  0.25
  Pb+  Pb6  4  0.16970000  0.77530000  0.79880000  0.5
  H  H7  4  0.04530000  0.63290000  0.54960000  1.0
  H  H8  4  0.04630000  0.88730000  0.45400000  1.0
  H  H9  4  0.08100000  0.40730000  0.35840000  1.0
  H  H10  4  0.10840000  0.06990000  0.03520000  1.0
  H  H11  4  0.13380000  0.06150000  0.57560000  1.0
  H  H12  4  0.19840000  0.74850000  0.88930000  1.0
  H  H13  4  0.20880000  0.38060000  0.43800000  1.0
  H  H14  4  0.21860000  0.68590000  0.32870000  1.0
  H  H15  4  0.23750000  0.04040000  0.11600000  1.0
  C  C16  4  0.07660000  0.70750000  0.59860000  1.0
  C  C17  4  0.07800000  0.85620000  0.53860000  1.0
  C  C18  4  0.08080000  0.24620000  0.18560000  1.0
  C  C19  4  0.11220000  0.33350000  0.30780000  1.0
  C  C20  4  0.12100000  0.66480000  0.73140000  1.0
  C  C21  4  0.12830000  0.13310000  0.11610000  1.0
  C  C22  4  0.13070000  0.95960000  0.61380000  1.0
  C  C23  4  0.17710000  0.91810000  0.73900000  1.0
  C  C24  4  0.18820000  0.31630000  0.35880000  1.0
  C  C25  4  0.20510000  0.11290000  0.16570000  1.0
  C  C26  4  0.23140000  0.20330000  0.29000000  1.0
  S  S27  4  0.01600000  0.73220000  0.12090000  1.0
  S  S28  4  0.11670000  0.47230000  0.81200000  1.0
