# generated using pymatgen
data_Yb1Sb1As0.75P0.25I1O4
_symmetry_space_group_name_H-M  'P 4/m m m'
_cell_length_a   3.87500000
_cell_length_b   3.87500000
_cell_length_c   9.54800000
_cell_angle_alpha   90.00000000
_cell_angle_beta   90.00000000
_cell_angle_gamma   90.00000000
_symmetry_Int_Tables_number   123
_chemical_formula_structural   Yb1Sb1As0.75P0.25I1O4
_chemical_formula_sum   'Yb1 Sb1 As0.75 P0.25 I1 O4'
_cell_volume   143.36918750
_cell_formula_units_Z   1
loop_
 _symmetry_equiv_pos_site_id
 _symmetry_equiv_pos_as_xyz
  1  'x, y, z'
  2  '-x, -y, -z'
  3  '-y, x, z'
  4  'y, -x, -z'
  5  '-x, -y, z'
  6  'x, y, -z'
  7  'y, -x, z'
  8  '-y, x, -z'
  9  'x, -y, -z'
  10  '-x, y, z'
  11  '-y, -x, -z'
  12  'y, x, z'
  13  '-x, y, -z'
  14  'x, -y, z'
  15  'y, x, -z'
  16  '-y, -x, z'
loop_
 _atom_type_symbol
 _atom_type_oxidation_number
  Yb0+  0.0
  Sb0+  0.0
  As0+  0.0
  P0+  0.0
  I0+  0.0
  O0+  0.0
loop_
 _atom_site_type_symbol
 _atom_site_label
 _atom_site_symmetry_multiplicity
 _atom_site_fract_x
 _atom_site_fract_y
 _atom_site_fract_z
 _atom_site_occupancy
  Yb0+  Yb0  1  0.00000000  0.00000000  0.00000000  1.0
  As0+  As1  2  0.50000000  0.50000000  0.25710000  0.375
  Sb0+  Sb2  2  0.50000000  0.50000000  0.25710000  0.5
  P0+  P3  2  0.50000000  0.50000000  0.25710000  0.125
  I0+  I4  1  0.00000000  0.00000000  0.50000000  1.0
  O0+  O5  4  0.00000000  0.50000000  0.13800000  1.0
