# generated using pymatgen
data_Fr0.25K0.75Na4Li0.5H0.5Au2O4
_symmetry_space_group_name_H-M  'P n n m'
_cell_length_a   9.92760000
_cell_length_b   5.59030000
_cell_length_c   4.08640000
_cell_angle_alpha   90.00000000
_cell_angle_beta   90.00000000
_cell_angle_gamma   90.00000000
_symmetry_Int_Tables_number   58
_chemical_formula_structural   Fr0.25K0.75Na4Li0.5H0.5Au2O4
_chemical_formula_sum   'Fr0.25 K0.75 Na4 Li0.5 H0.5 Au2 O4'
_cell_volume   226.78809898
_cell_formula_units_Z   1
loop_
 _symmetry_equiv_pos_site_id
 _symmetry_equiv_pos_as_xyz
  1  'x, y, z'
  2  '-x, -y, -z'
  3  '-x, -y, z'
  4  'x, y, -z'
  5  '-x+1/2, y+1/2, -z+1/2'
  6  'x+1/2, -y+1/2, z+1/2'
  7  'x+1/2, -y+1/2, -z+1/2'
  8  '-x+1/2, y+1/2, z+1/2'
loop_
 _atom_type_symbol
 _atom_type_oxidation_number
  Fr0+  0.0
  K0+  0.0
  Na0+  0.0
  Li0+  0.0
  H0+  0.0
  Au0+  0.0
  O0+  0.0
loop_
 _atom_site_type_symbol
 _atom_site_label
 _atom_site_symmetry_multiplicity
 _atom_site_fract_x
 _atom_site_fract_y
 _atom_site_fract_z
 _atom_site_occupancy
  Na0+  Na0  4  0.23000000  0.07890000  0.50000000  1.0
  H0+  H1  2  0.00000000  0.50000000  0.50000000  0.25
  Li0+  Li2  2  0.00000000  0.50000000  0.50000000  0.25
  K0+  K3  2  0.00000000  0.50000000  0.50000000  0.375
  Fr0+  Fr4  2  0.00000000  0.50000000  0.50000000  0.125
  Au0+  Au5  2  0.00000000  0.00000000  0.00000000  1.0
  O0+  O6  4  0.15630000  0.22550000  0.00000000  1.0
