# generated using pymatgen
data_Rg1.5Cu0.16666667Au0.33333333Se4
_symmetry_space_group_name_H-M  'P n n m'
_cell_length_a   5.00500000
_cell_length_b   6.18200000
_cell_length_c   3.74000000
_cell_angle_alpha   90.00000000
_cell_angle_beta   90.00000000
_cell_angle_gamma   90.00000000
_symmetry_Int_Tables_number   58
_chemical_formula_structural   Rg1.5Cu0.16666667Au0.33333333Se4
_chemical_formula_sum   'Rg1.5 Cu0.16666667 Au0.33333333 Se4'
_cell_volume   115.71900340
_cell_formula_units_Z   1
loop_
 _symmetry_equiv_pos_site_id
 _symmetry_equiv_pos_as_xyz
  1  'x, y, z'
  2  '-x, -y, -z'
  3  '-x, -y, z'
  4  'x, y, -z'
  5  'x+1/2, -y+1/2, -z+1/2'
  6  '-x+1/2, y+1/2, z+1/2'
  7  '-x+1/2, y+1/2, -z+1/2'
  8  'x+1/2, -y+1/2, z+1/2'
loop_
 _atom_site_type_symbol
 _atom_site_label
 _atom_site_symmetry_multiplicity
 _atom_site_fract_x
 _atom_site_fract_y
 _atom_site_fract_z
 _atom_site_occupancy
  Rg+  Rg0  2  0.00000000  0.00000000  0.00000000  0.75
  Cu+  Cu1  2  0.00000000  0.00000000  0.00000000
  0.08333333333333333
  Au+  Au2  2  0.00000000  0.00000000  0.00000000
  0.16666666666666666
  Se  Se3  4  0.18400000  0.38500000  0.00000000  1
