# generated using pymatgen
data_PuFmMdTh12NpTs5I40BrClF
_symmetry_space_group_name_H-M  'C c c m'
_cell_length_a   8.73500000
_cell_length_b   20.29700000
_cell_length_c   14.66100000
_cell_angle_alpha   90.00000000
_cell_angle_beta   90.00000000
_cell_angle_gamma   90.00000000
_symmetry_Int_Tables_number   66
_chemical_formula_structural   PuFmMdTh12NpTs5I40BrClF
_chemical_formula_sum   'Pu1 Md1 Fm1 Th12 Np1 Ts5 I40 Br1 Cl1 F1'
_cell_volume   2599.31165900
_cell_formula_units_Z   1
loop_
 _symmetry_equiv_pos_site_id
 _symmetry_equiv_pos_as_xyz
  1  'x, y, z'
  2  '-x, -y, -z'
  3  '-x, -y, z'
  4  'x, y, -z'
  5  'x, -y, -z+1/2'
  6  '-x, y, z+1/2'
  7  '-x, y, -z+1/2'
  8  'x, -y, z+1/2'
  9  'x+1/2, y+1/2, z'
  10  '-x+1/2, -y+1/2, -z'
  11  '-x+1/2, -y+1/2, z'
  12  'x+1/2, y+1/2, -z'
  13  'x+1/2, -y+1/2, -z+1/2'
  14  '-x+1/2, y+1/2, z+1/2'
  15  '-x+1/2, y+1/2, -z+1/2'
  16  'x+1/2, -y+1/2, z+1/2'
loop_
 _atom_type_symbol
 _atom_type_oxidation_number
  Pu3+  3.0
  Fm3+  3.0
  Md3+  3.0
  Th3+  3.0
  Np3+  3.0
  I-  -1.0
  Br+  1.0
  Cl+  1.0
  F+  1.0
  Ts+  1.0
loop_
 _atom_site_type_symbol
 _atom_site_label
 _atom_site_symmetry_multiplicity
 _atom_site_fract_x
 _atom_site_fract_y
 _atom_site_fract_z
 _atom_site_occupancy
  Th3+  Th0  8  0.17300000  0.32840000  0.00000000  1.0
  Th3+  Th1  4  0.00000000  0.50000000  0.25000000  1.0
  Md3+  Md2  4  0.00000000  0.50000000  0.00000000  0.25
  Np3+  Np3  4  0.00000000  0.50000000  0.00000000  0.25
  Pu3+  Pu4  4  0.00000000  0.50000000  0.00000000  0.25
  Fm3+  Fm5  4  0.00000000  0.50000000  0.00000000  0.25
  Ts+  Ts6  8  0.25000000  0.25000000  0.18260000  0.625
  Cl+  Cl7  8  0.25000000  0.25000000  0.18260000  0.125
  Br+  Br8  8  0.25000000  0.25000000  0.18260000  0.125
  F+  F9  8  0.25000000  0.25000000  0.18260000  0.125
  I-  I10  16  0.11330000  0.37730000  0.37080000  1.0
  I-  I11  16  0.21060000  0.04900000  0.13020000  1.0
  I-  I12  8  0.03180000  0.19940000  0.50000000  1.0
