# generated using pymatgen
data_SrCaYbPmErMgInGaB
_symmetry_space_group_name_H-M  'P -6 2 m'
_cell_length_a   7.61300000
_cell_length_b   7.61300000
_cell_length_c   4.70300000
_cell_angle_alpha   90.00000000
_cell_angle_beta   90.00000000
_cell_angle_gamma   120.00000000
_symmetry_Int_Tables_number   189
_chemical_formula_structural   SrCaYbPmErMgInGaB
_chemical_formula_sum   'Sr1 Ca1 Yb1 Pm1 Er1 Mg1 In1 Ga1 B1'
_cell_volume   236.05721011
_cell_formula_units_Z   1
loop_
 _symmetry_equiv_pos_site_id
 _symmetry_equiv_pos_as_xyz
  1  'x, y, z'
  2  '-x+y, -x, -z'
  3  '-y, x-y, z'
  4  'x, y, -z'
  5  '-x+y, -x, z'
  6  '-y, x-y, -z'
  7  'y, x, z'
  8  '-x, -x+y, -z'
  9  'x-y, -y, z'
  10  'y, x, -z'
  11  '-x, -x+y, z'
  12  'x-y, -y, -z'
loop_
 _atom_site_type_symbol
 _atom_site_label
 _atom_site_symmetry_multiplicity
 _atom_site_fract_x
 _atom_site_fract_y
 _atom_site_fract_z
 _atom_site_occupancy
  Sr+  Sr0  3  0.00000000  0.24280000  0.50000000
  0.3333333333333333
  Mg+  Mg1  3  0.00000000  0.24280000  0.50000000
  0.3333333333333333
  Ca+  Ca2  3  0.00000000  0.24280000  0.50000000
  0.3333333333333333
  Yb+  Yb3  3  0.00000000  0.56823000  0.00000000
  0.3333333333333333
  Er+  Er4  3  0.00000000  0.56823000  0.00000000
  0.3333333333333333
  Pm+  Pm5  3  0.00000000  0.56823000  0.00000000
  0.3333333333333333
  In  In6  1  0.00000000  0.00000000  0.00000000  1.0
  B+  B7  2  0.33333333  0.66666667  0.50000000  0.5
  Ga+  Ga8  2  0.33333333  0.66666667  0.50000000  0.5
