# generated using pymatgen
data_Ho3Tl0.33333333Ga0.33333333Nh2Ni0.33333333B0.33333333Pd2.33333333Pt0.33333
_symmetry_space_group_name_H-M  'P -6 2 m'
_cell_length_a   7.72700000
_cell_length_b   7.72700000
_cell_length_c   3.72200000
_cell_angle_alpha   90.00000000
_cell_angle_beta   90.00000000
_cell_angle_gamma   120.00000000
_symmetry_Int_Tables_number   189
_chemical_formula_structural
;
Ho3Tl0.33333333Ga0.33333333Nh2Ni0.33333333B0.33333333Pd2.33333333Pt0.3
3333333
;
_chemical_formula_sum
;
Ho3 Tl0.33333333 Ga0.33333333 Nh2 Ni0.33333333 B0.33333333
Pd2.33333333 Pt0.33333333
;
_cell_volume   192.45483444
_cell_formula_units_Z   1
loop_
 _symmetry_equiv_pos_site_id
 _symmetry_equiv_pos_as_xyz
  1  'x, y, z'
  2  '-x+y, -x, -z'
  3  '-y, x-y, z'
  4  'x, y, -z'
  5  '-x+y, -x, z'
  6  '-y, x-y, -z'
  7  'y, x, z'
  8  '-x, -x+y, -z'
  9  'x-y, -y, z'
  10  'y, x, -z'
  11  '-x, -x+y, z'
  12  'x-y, -y, -z'
loop_
 _atom_site_type_symbol
 _atom_site_label
 _atom_site_symmetry_multiplicity
 _atom_site_fract_x
 _atom_site_fract_y
 _atom_site_fract_z
 _atom_site_occupancy
  Ho  Ho0  3  0.00000000  0.58500000  0.50000000  1.0
  Ga+  Ga1  3  0.00000000  0.24500000  0.00000000
  0.1111111111111111
  Tl+  Tl2  3  0.00000000  0.24500000  0.00000000
  0.1111111111111111
  Nh+  Nh3  3  0.00000000  0.24500000  0.00000000
  0.6666666666666666
  B+  B4  3  0.00000000  0.24500000  0.00000000  0.1111111111111111
  Pt+  Pt5  1  0.00000000  0.00000000  0.50000000
  0.3333333333333333
  Ni+  Ni6  1  0.00000000  0.00000000  0.50000000
  0.3333333333333333
  Pd+  Pd7  1  0.00000000  0.00000000  0.50000000
  0.3333333333333333
  Pd  Pd8  2  0.33333333  0.66666667  0.00000000  1.0
