# generated using pymatgen
data_Sr10Nb10Po1Se1.66666667O29Lv0.33333333
_symmetry_space_group_name_H-M  'P m n 21'
_cell_length_a   3.99200000
_cell_length_b   32.47600000
_cell_length_c   5.67700000
_cell_angle_alpha   90.00000000
_cell_angle_beta   90.00000000
_cell_angle_gamma   90.00000000
_symmetry_Int_Tables_number   31
_chemical_formula_structural   Sr10Nb10Po1Se1.66666667O29Lv0.33333333
_chemical_formula_sum   'Sr10 Nb10 Po1 Se1.66666667 O29 Lv0.33333333'
_cell_volume   735.99007798
_cell_formula_units_Z   1
loop_
 _symmetry_equiv_pos_site_id
 _symmetry_equiv_pos_as_xyz
  1  'x, y, z'
  2  '-x+1/2, -y, z+1/2'
  3  '-x, y, z'
  4  'x+1/2, -y, z+1/2'
loop_
 _atom_type_symbol
 _atom_type_oxidation_number
  Sr2+  2.0
  Nb4+  4.0
  Nb5+  5.0
  Po2-  -2.0
  Se2-  -2.0
  O2-  -2.0
  Lv2-  -2.0
loop_
 _atom_site_type_symbol
 _atom_site_label
 _atom_site_symmetry_multiplicity
 _atom_site_fract_x
 _atom_site_fract_y
 _atom_site_fract_z
 _atom_site_occupancy
  Sr2+  Sr0  2  0.00000000  0.53130000  0.00000000  1.0
  Sr2+  Sr1  2  0.00000000  0.66390000  0.57770000  1.0
  Sr2+  Sr2  2  0.00000000  0.75370000  0.06390000  1.0
  Sr2+  Sr3  2  0.00000000  0.84220000  0.57830000  1.0
  Sr2+  Sr4  2  0.00000000  0.95960000  0.12630000  1.0
  Nb4+  Nb5  2  0.00000000  0.07470000  0.10550000  1.0
  Nb4+  Nb6  2  0.00000000  0.15690000  0.57590000  1.0
  Nb4+  Nb7  2  0.00000000  0.24700000  0.07310000  1.0
  Nb5+  Nb8  2  0.00000000  0.33790000  0.56740000  1.0
  Nb5+  Nb9  2  0.00000000  0.42950000  0.03670000  1.0
  Se2-  Se10  2  0.00000000  0.11100000  0.77700000  0.5
  Po2-  Po11  2  0.00000000  0.11100000  0.77700000  0.5
  O2-  O12  2  0.00000000  0.03400000  0.34200000  1.0
  O2-  O13  2  0.00000000  0.03600000  0.90100000  1.0
  O2-  O14  2  0.00000000  0.12800000  0.25900000  1.0
  O2-  O15  2  0.00000000  0.20700000  0.86700000  1.0
  O2-  O16  2  0.00000000  0.21800000  0.36200000  1.0
  O2-  O17  2  0.00000000  0.47100000  0.25100000  0.5
  Se2-  Se18  2  0.00000000  0.47100000  0.25100000
  0.3333333333333333
  Lv2-  Lv19  2  0.00000000  0.47100000  0.25100000
  0.16666666666666666
  O2-  O20  2  0.00000000  0.24600000  0.10400000  1.0
  O2-  O21  2  0.00000000  0.29500000  0.81500000  1.0
  O2-  O22  2  0.00000000  0.29800000  0.31000000  1.0
  O2-  O23  2  0.00000000  0.37000000  0.86000000  1.0
  O2-  O24  2  0.00000000  0.37700000  0.32200000  1.0
  O2-  O25  2  0.00000000  0.45100000  0.77200000  1.0
  O2-  O26  2  0.00000000  0.67600000  0.08200000  1.0
  O2-  O27  2  0.00000000  0.83700000  0.06200000  1.0
  O2-  O28  2  0.00000000  0.92100000  0.57600000  1.0
