# generated using pymatgen
data_Al0.5Tl5.5Sg2.5Cr0.5
_symmetry_space_group_name_H-M  'P 64 2 2'
_cell_length_a   4.74220000
_cell_length_b   4.74220000
_cell_length_c   6.60570000
_cell_angle_alpha   90.00000000
_cell_angle_beta   90.00000000
_cell_angle_gamma   120.00000000
_symmetry_Int_Tables_number   181
_chemical_formula_structural   Al0.5Tl5.5Sg2.5Cr0.5
_chemical_formula_sum   'Al0.5 Tl5.5 Sg2.5 Cr0.5'
_cell_volume   128.64982810
_cell_formula_units_Z   1
loop_
 _symmetry_equiv_pos_site_id
 _symmetry_equiv_pos_as_xyz
  1  'x, y, z'
  2  'x-y, x, z+2/3'
  3  '-y, x-y, z+1/3'
  4  '-x, -y, z'
  5  '-x+y, -x, z+2/3'
  6  'y, -x+y, z+1/3'
  7  '-y, -x, -z+1/3'
  8  '-x, -x+y, -z+2/3'
  9  '-x+y, y, -z'
  10  'y, x, -z+1/3'
  11  'x, x-y, -z+2/3'
  12  'x-y, -y, -z'
loop_
 _atom_type_symbol
 _atom_type_oxidation_number
  Al0+  0.0
  Tl0+  0.0
  Cr0+  0.0
  Sg0+  0.0
loop_
 _atom_site_type_symbol
 _atom_site_label
 _atom_site_symmetry_multiplicity
 _atom_site_fract_x
 _atom_site_fract_y
 _atom_site_fract_z
 _atom_site_occupancy
  Tl0+  Tl0  6  0.16180000  0.32360000  0.50003333
  0.9166666666666666
  Al0+  Al1  6  0.16180000  0.32360000  0.50003333
  0.08333333333333333
  Sg0+  Sg2  3  0.00000000  0.50000000  0.83336667
  0.8333333333333334
  Cr0+  Cr3  3  0.00000000  0.50000000  0.83336667
  0.16666666666666666
