# generated using pymatgen
data_Ba4Na4Po2BiPMc2Se5SO3Lv
_symmetry_space_group_name_H-M  'P 1 21/c 1'
_cell_length_a   6.29100000
_cell_length_b   14.80000000
_cell_length_c   8.07200000
_cell_angle_alpha   90.00000000
_cell_angle_beta   105.48400000
_cell_angle_gamma   90.00000000
_symmetry_Int_Tables_number   14
_chemical_formula_structural   Ba4Na4Po2BiPMc2Se5SO3Lv
_chemical_formula_sum   'Ba4 Na4 Po2 Bi1 P1 Mc2 Se5 S1 O3 Lv1'
_cell_volume   724.28032081
_cell_formula_units_Z   1
loop_
 _symmetry_equiv_pos_site_id
 _symmetry_equiv_pos_as_xyz
  1  'x, y, z'
  2  '-x, -y, -z'
  3  '-x, y+1/2, -z+1/2'
  4  'x, -y+1/2, z+1/2'
loop_
 _atom_site_type_symbol
 _atom_site_label
 _atom_site_symmetry_multiplicity
 _atom_site_fract_x
 _atom_site_fract_y
 _atom_site_fract_z
 _atom_site_occupancy
  Ba  Ba0  4  0.17340000  0.08058000  0.27775000  1.0
  Na  Na1  4  0.25610000  0.71460000  0.92500000  1.0
  Bi+  Bi2  4  0.37568000  0.09686000  0.83897000  0.25
  P+  P3  4  0.37568000  0.09686000  0.83897000  0.25
  Mc+  Mc4  4  0.37568000  0.09686000  0.83897000  0.5
  O+  O5  4  0.25841000  0.21891000  0.60915000  0.5
  Po+  Po6  4  0.25841000  0.21891000  0.60915000  0.5
  Se+  Se7  4  0.20475000  0.61795000  0.60648000  0.25
  Lv+  Lv8  4  0.20475000  0.61795000  0.60648000  0.25
  O+  O9  4  0.20475000  0.61795000  0.60648000  0.25
  S+  S10  4  0.20475000  0.61795000  0.60648000  0.25
  Se  Se11  4  0.30223000  0.54367000  0.14321000  1.0
