# generated using pymatgen
data_Rb3V3.5Db1Ta0.5Po1.5S1O11Lv0.5
_symmetry_space_group_name_H-M  'P 3 1 m'
_cell_length_a   8.70920000
_cell_length_b   8.70920000
_cell_length_c   5.27720000
_cell_angle_alpha   90.00000000
_cell_angle_beta   90.00000000
_cell_angle_gamma   120.00000000
_symmetry_Int_Tables_number   157
_chemical_formula_structural   Rb3V3.5Db1Ta0.5Po1.5S1O11Lv0.5
_chemical_formula_sum   'Rb3 V3.5 Db1 Ta0.5 Po1.5 S1 O11 Lv0.5'
_cell_volume   346.64960787
_cell_formula_units_Z   1
loop_
 _symmetry_equiv_pos_site_id
 _symmetry_equiv_pos_as_xyz
  1  'x, y, z'
  2  '-y, x-y, z'
  3  '-x+y, -x, z'
  4  'y, x, z'
  5  'x-y, -y, z'
  6  '-x, -x+y, z'
loop_
 _atom_site_type_symbol
 _atom_site_label
 _atom_site_symmetry_multiplicity
 _atom_site_fract_x
 _atom_site_fract_y
 _atom_site_fract_z
 _atom_site_occupancy
  Rb  Rb0  3  0.00000000  0.61217000  0.94007000  1.0
  V+  V1  2  0.33333333  0.66666667  0.41687000  0.25
  Db+  Db2  2  0.33333333  0.66666667  0.41687000  0.5
  Ta+  Ta3  2  0.33333333  0.66666667  0.41687000  0.25
  V  V4  3  0.00000000  0.23045000  0.43270000  1.0
  O  O5  6  0.16980000  0.46100000  0.30540000  1.0
  O  O6  2  0.33333333  0.66666667  0.72570000  1.0
  Po+  Po7  3  0.00000000  0.25260000  0.73400000  0.5
  S+  S8  3  0.00000000  0.25260000  0.73400000  0.3333333333333333
  Lv+  Lv9  3  0.00000000  0.25260000  0.73400000
  0.16666666666666666
  O  O10  3  0.00000000  0.83260000  0.37270000  1.0
