# generated using pymatgen
data_Rb2Li1Ta0.5Nb0.5V3.5Db0.5Te2.5Se0.5O11
_symmetry_space_group_name_H-M  'P 3 1 m'
_cell_length_a   8.71340000
_cell_length_b   8.71340000
_cell_length_c   5.28070000
_cell_angle_alpha   90.00000000
_cell_angle_beta   90.00000000
_cell_angle_gamma   120.00000000
_symmetry_Int_Tables_number   157
_chemical_formula_structural   Rb2Li1Ta0.5Nb0.5V3.5Db0.5Te2.5Se0.5O11
_chemical_formula_sum
'Rb2 Li1 Ta0.5 Nb0.5 V3.5 Db0.5 Te2.5 Se0.5 O11'
_cell_volume   347.21416150
_cell_formula_units_Z   1
loop_
 _symmetry_equiv_pos_site_id
 _symmetry_equiv_pos_as_xyz
  1  'x, y, z'
  2  '-y, x-y, z'
  3  '-x+y, -x, z'
  4  'y, x, z'
  5  'x-y, -y, z'
  6  '-x, -x+y, z'
loop_
 _atom_site_type_symbol
 _atom_site_label
 _atom_site_symmetry_multiplicity
 _atom_site_fract_x
 _atom_site_fract_y
 _atom_site_fract_z
 _atom_site_occupancy
  Li+  Li0  3  0.00000000  0.38780000  0.17560000
  0.3333333333333333
  Rb+  Rb1  3  0.00000000  0.38780000  0.17560000
  0.6666666666666666
  V  V2  3  0.00000000  0.76940000  0.66900000  1.0
  Nb+  Nb3  2  0.33333333  0.66666667  0.65800000  0.25
  Db+  Db4  2  0.33333333  0.66666667  0.65800000  0.25
  V+  V5  2  0.33333333  0.66666667  0.65800000  0.25
  Ta+  Ta6  2  0.33333333  0.66666667  0.65800000  0.25
  Se+  Se7  3  0.00000000  0.74710000  0.96900000
  0.16666666666666666
  Te+  Te8  3  0.00000000  0.74710000  0.96900000
  0.8333333333333334
  O  O9  6  0.16920000  0.70880000  0.54430000  1.0
  O  O10  3  0.00000000  0.16690000  0.62430000  1.0
  O  O11  2  0.33333333  0.66666667  0.96300000  1.0
