# generated using pymatgen
data_Al0.5Tl0.5In0.5Ag2B0.5As2.5Se12N1.5
_symmetry_space_group_name_H-M  'P -3 1 c'
_cell_length_a   6.37500000
_cell_length_b   6.37500000
_cell_length_c   13.32000000
_cell_angle_alpha   90.00000000
_cell_angle_beta   90.00000000
_cell_angle_gamma   120.00000000
_symmetry_Int_Tables_number   163
_chemical_formula_structural   Al0.5Tl0.5In0.5Ag2B0.5As2.5Se12N1.5
_chemical_formula_sum   'Al0.5 Tl0.5 In0.5 Ag2 B0.5 As2.5 Se12 N1.5'
_cell_volume   468.80823816
_cell_formula_units_Z   1
loop_
 _symmetry_equiv_pos_site_id
 _symmetry_equiv_pos_as_xyz
  1  'x, y, z'
  2  '-x, -y, -z'
  3  '-y, x-y, z'
  4  'y, -x+y, -z'
  5  '-x+y, -x, z'
  6  'x-y, x, -z'
  7  '-y, -x, -z+1/2'
  8  'y, x, z+1/2'
  9  '-x+y, y, -z+1/2'
  10  'x-y, -y, z+1/2'
  11  'x, x-y, -z+1/2'
  12  '-x, -x+y, z+1/2'
loop_
 _atom_type_symbol
 _atom_type_oxidation_number
  Al0+  0.0
  Tl0+  0.0
  In0+  0.0
  Ag0+  0.0
  B0+  0.0
  As0+  0.0
  Se0+  0.0
  N0+  0.0
loop_
 _atom_site_type_symbol
 _atom_site_label
 _atom_site_symmetry_multiplicity
 _atom_site_fract_x
 _atom_site_fract_y
 _atom_site_fract_z
 _atom_site_occupancy
  Tl0+  Tl0  2  0.00000000  0.00000000  0.25000000  0.25
  B0+  B1  2  0.00000000  0.00000000  0.25000000  0.25
  Al0+  Al2  2  0.00000000  0.00000000  0.25000000  0.25
  In0+  In3  2  0.00000000  0.00000000  0.25000000  0.25
  Ag0+  Ag4  2  0.33333333  0.66666667  0.75000000  1.0
  N0+  N5  4  0.33333333  0.66666667  0.17180000  0.375
  As0+  As6  4  0.33333333  0.66666667  0.17180000  0.625
  Se0+  Se7  12  0.02030000  0.32180000  0.37860000  1.0
