# generated using pymatgen
data_Rb2K1.5Ga20H0.5O32
_symmetry_space_group_name_H-M  'P 43 3 2'
_cell_length_a   8.20300000
_cell_length_b   8.20300000
_cell_length_c   8.20300000
_cell_angle_alpha   90.00000000
_cell_angle_beta   90.00000000
_cell_angle_gamma   90.00000000
_symmetry_Int_Tables_number   212
_chemical_formula_structural   Rb2K1.5Ga20H0.5O32
_chemical_formula_sum   'Rb2 K1.5 Ga20 H0.5 O32'
_cell_volume   551.97338143
_cell_formula_units_Z   1
loop_
 _symmetry_equiv_pos_site_id
 _symmetry_equiv_pos_as_xyz
  1  'x, y, z'
  2  '-y+3/4, x+1/4, z+3/4'
  3  '-x+1/2, -y, z+1/2'
  4  'y+3/4, -x+3/4, z+1/4'
  5  'x+1/2, -y+1/2, -z'
  6  '-y+1/4, -x+1/4, -z+1/4'
  7  '-x, y+1/2, -z+1/2'
  8  'y+1/4, x+3/4, -z+3/4'
  9  'z, x, y'
  10  'z+3/4, -y+3/4, x+1/4'
  11  'z+1/2, -x+1/2, -y'
  12  'z+1/4, y+3/4, -x+3/4'
  13  '-z, x+1/2, -y+1/2'
  14  '-z+1/4, -y+1/4, -x+1/4'
  15  '-z+1/2, -x, y+1/2'
  16  '-z+3/4, y+1/4, x+3/4'
  17  'y, z, x'
  18  'x+1/4, z+3/4, -y+3/4'
  19  '-y, z+1/2, -x+1/2'
  20  '-x+3/4, z+1/4, y+3/4'
  21  '-y+1/2, -z, x+1/2'
  22  '-x+1/4, -z+1/4, -y+1/4'
  23  'y+1/2, -z+1/2, -x'
  24  'x+3/4, -z+3/4, y+1/4'
loop_
 _atom_type_symbol
 _atom_type_oxidation_number
  K+  1.0
  Rb+  1.0
  Ga3+  3.0
  H+  1.0
  O2-  -2.0
loop_
 _atom_site_type_symbol
 _atom_site_label
 _atom_site_symmetry_multiplicity
 _atom_site_fract_x
 _atom_site_fract_y
 _atom_site_fract_z
 _atom_site_occupancy
  Rb+  Rb0  4  0.12500000  0.87500000  0.37500000  0.5
  H+  H1  4  0.12500000  0.87500000  0.37500000  0.125
  K+  K2  4  0.12500000  0.87500000  0.37500000  0.375
  Ga3+  Ga3  12  0.12500000  0.12500000  0.62500000  1.0
  Ga3+  Ga4  8  0.00000000  0.00000000  0.00000000  1.0
  O2-  O5  24  0.12500000  0.12500000  0.37500000  1.0
  O2-  O6  8  0.12500000  0.37500000  0.62500000  1.0
