# generated using pymatgen
data_H48C36Fl1.33333333Ge2.66666667N8O12
_symmetry_space_group_name_H-M  'P 43'
_cell_length_a   8.46530000
_cell_length_b   8.46530000
_cell_length_c   14.90360000
_cell_angle_alpha   90.00000000
_cell_angle_beta   90.00000000
_cell_angle_gamma   90.00000000
_symmetry_Int_Tables_number   78
_chemical_formula_structural   H48C36Fl1.33333333Ge2.66666667N8O12
_chemical_formula_sum   'H48 C36 Fl1.33333333 Ge2.66666667 N8 O12'
_cell_volume   1068.01141164
_cell_formula_units_Z   1
loop_
 _symmetry_equiv_pos_site_id
 _symmetry_equiv_pos_as_xyz
  1  'x, y, z'
  2  '-y, x, z+3/4'
  3  '-x, -y, z+1/2'
  4  'y, -x, z+1/4'
loop_
 _atom_site_type_symbol
 _atom_site_label
 _atom_site_symmetry_multiplicity
 _atom_site_fract_x
 _atom_site_fract_y
 _atom_site_fract_z
 _atom_site_occupancy
  H  H0  4  0.00870000  0.94290000  0.24770000  1.0
  H  H1  4  0.01020000  0.53060000  0.30880000  1.0
  H  H2  4  0.02140000  0.52930000  0.41380000  1.0
  H  H3  4  0.03190000  0.75670000  0.87330000  1.0
  H  H4  4  0.03700000  0.31870000  0.86380000  1.0
  H  H5  4  0.06600000  0.89700000  0.55520000  1.0
  H  H6  4  0.08800000  0.91080000  0.45100000  1.0
  H  H7  4  0.22170000  0.42590000  0.17680000  1.0
  H  H8  4  0.28090000  0.69290000  0.13960000  1.0
  H  H9  4  0.29800000  0.33240000  0.09700000  1.0
  H  H10  4  0.30780000  0.63930000  0.44500000  1.0
  H  H11  4  0.36700000  0.61960000  0.63690000  1.0
  C  C12  4  0.03740000  0.43210000  0.86330000  1.0
  C  C13  4  0.11270000  0.85260000  0.76687000  1.0
  C  C14  4  0.20580000  0.49100000  0.86892000  1.0
  C  C15  4  0.23860000  0.65230000  0.85927000  1.0
  C  C16  4  0.29960000  0.39450000  0.61824000  1.0
  C  C17  4  0.31840000  0.38330000  0.15340000  1.0
  C  C18  4  0.32970000  0.38790000  0.88360000  1.0
  C  C19  4  0.40380000  0.51640000  0.63240000  1.0
  C  C20  4  0.43560000  0.51490000  0.13980000  1.0
  Fl+  Fl21  4  0.03540000  0.05250000  0.25400000
  0.3333333333333333
  Ge+  Ge22  4  0.03540000  0.05250000  0.25400000
  0.6666666666666666
  N  N23  4  0.11280000  0.75570000  0.83839000  1.0
  N  N24  4  0.13140000  0.43630000  0.61621000  1.0
  O  O25  4  0.03590000  0.34460000  0.64850000  1.0
  O  O26  4  0.09510000  0.56430000  0.58500000  1.0
  O  O27  4  0.13870000  0.22450000  0.46513000  1.0
