# generated using pymatgen
data_K0.5Rb2.5Li1La4As7.5P0.5H40C28N32O24
_symmetry_space_group_name_H-M  'I 21 21 21'
_cell_length_a   8.88400000
_cell_length_b   13.09300000
_cell_length_c   13.13460000
_cell_angle_alpha   90.00000000
_cell_angle_beta   90.00000000
_cell_angle_gamma   90.00000000
_symmetry_Int_Tables_number   24
_chemical_formula_structural   K0.5Rb2.5Li1La4As7.5P0.5H40C28N32O24
_chemical_formula_sum
'K0.5 Rb2.5 Li1 La4 As7.5 P0.5 H40 C28 N32 O24'
_cell_volume   1527.79318734
_cell_formula_units_Z   1
loop_
 _symmetry_equiv_pos_site_id
 _symmetry_equiv_pos_as_xyz
  1  'x, y, z'
  2  '-x, -y+1/2, z'
  3  'x+1/2, -y+1/2, -z'
  4  '-x+1/2, y, -z'
  5  'x+1/2, y+1/2, z+1/2'
  6  '-x+1/2, -y, z+1/2'
  7  'x, -y, -z+1/2'
  8  '-x, y+1/2, -z+1/2'
loop_
 _atom_site_type_symbol
 _atom_site_label
 _atom_site_symmetry_multiplicity
 _atom_site_fract_x
 _atom_site_fract_y
 _atom_site_fract_z
 _atom_site_occupancy
  K+  K0  4  0.25000000  0.38850000  0.50000000  0.125
  Rb+  Rb1  4  0.25000000  0.38850000  0.50000000  0.625
  Li+  Li2  4  0.25000000  0.38850000  0.50000000  0.25
  La  La3  4  0.00000000  0.25000000  0.20595100  1.0
  P+  P4  8  0.16423000  0.17060000  0.06017000  0.0625
  As+  As5  8  0.16423000  0.17060000  0.06017000  0.9375
  H  H6  8  0.07200000  0.22200000  0.44080000  1.0
  H  H7  8  0.10860000  0.47830000  0.38290000  1.0
  H  H8  8  0.17300000  0.11700000  0.51800000  1.0
  H  H9  8  0.17400000  0.22440000  0.73000000  1.0
  H  H10  8  0.18100000  0.33770000  0.73600000  1.0
  C  C11  8  0.16630000  0.48640000  0.06959000  1.0
  C  C12  4  0.14490000  0.00000000  0.25000000  1.0
  C  C13  4  0.18700000  0.00000000  0.75000000  1.0
  C  C14  4  0.25000000  0.22641000  0.00000000  1.0
  C  C15  4  0.25000000  0.33866000  0.00000000  1.0
  C  C16  4  0.25000000  0.45950000  0.50000000  1.0
  N  N17  8  0.03892000  0.45072000  0.74090000  1.0
  N  N18  8  0.10306000  0.08277000  0.73497000  1.0
  N  N19  8  0.16577000  0.38358000  0.07070000  1.0
  N  N20  8  0.19850000  0.07322000  0.03569000  1.0
  O  O21  8  0.07930000  0.08329000  0.26211000  1.0
  O  O22  8  0.23315000  0.27968000  0.73341000  1.0
  O  O23  4  0.00000000  0.25000000  0.40173000  1.0
  O  O24  4  0.25000000  0.15800000  0.50000000  1.0
