# generated using pymatgen
data_K1.33333333Na2.66666667P2H36C30S6N8O6F6
_symmetry_space_group_name_H-M  'P 1 21/m 1'
_cell_length_a   6.58550000
_cell_length_b   12.53080000
_cell_length_c   12.46980000
_cell_angle_alpha   90.00000000
_cell_angle_beta   91.56800000
_cell_angle_gamma   90.00000000
_symmetry_Int_Tables_number   11
_chemical_formula_structural
K1.33333333Na2.66666667P2H36C30S6N8O6F6
_chemical_formula_sum
'K1.33333333 Na2.66666667 P2 H36 C30 S6 N8 O6 F6'
_cell_volume   1028.64232490
_cell_formula_units_Z   1
loop_
 _symmetry_equiv_pos_site_id
 _symmetry_equiv_pos_as_xyz
  1  'x, y, z'
  2  '-x, -y, -z'
  3  '-x, y+1/2, -z'
  4  'x, -y+1/2, z'
loop_
 _atom_site_type_symbol
 _atom_site_label
 _atom_site_symmetry_multiplicity
 _atom_site_fract_x
 _atom_site_fract_y
 _atom_site_fract_z
 _atom_site_occupancy
  K+  K0  4  0.33740000  0.52270000  0.25520000  0.3333333333333333
  Na+  Na1  4  0.33740000  0.52270000  0.25520000
  0.6666666666666666
  P  P2  2  0.48697000  0.25000000  0.45344000  1.0
  H  H3  4  0.02040000  0.52390000  0.83110000  1.0
  H  H4  4  0.05190000  0.63040000  0.76280000  1.0
  H  H5  4  0.06700000  0.01320000  0.64610000  1.0
  H  H6  4  0.10530000  0.62960000  0.88870000  1.0
  H  H7  4  0.14150000  0.12840000  0.51100000  1.0
  H  H8  4  0.27730000  0.63830000  0.39210000  1.0
  H  H9  4  0.41530000  0.62460000  0.93740000  1.0
  H  H10  4  0.43080000  0.13510000  0.15910000  1.0
  H  H11  4  0.45150000  0.02400000  0.09700000  1.0
  C  C12  4  0.10560000  0.58731000  0.82266000  1.0
  C  C13  4  0.20190000  0.03895000  0.64036000  1.0
  C  C14  4  0.24700000  0.10662000  0.55972000  1.0
  C  C15  4  0.35420000  0.00593000  0.71668000  1.0
  C  C16  4  0.41140000  0.61232000  0.38333000  1.0
  C  C17  4  0.44690000  0.54458000  0.30130000  1.0
  C  C18  4  0.47500000  0.58724000  0.87681000  1.0
  C  C19  2  0.16810000  0.25000000  0.91780000  1.0
  S  S20  2  0.09108000  0.75000000  0.13753000  1.0
  S  S21  2  0.22724000  0.75000000  0.57735000  1.0
  S  S22  2  0.27385000  0.25000000  0.34414000  1.0
  N  N23  4  0.31330000  0.55446000  0.80079000  1.0
  N  N24  4  0.43870000  0.14461000  0.54608000  1.0
  O  O25  4  0.17470000  0.65379000  0.09469000  1.0
  O  O26  2  0.06690000  0.75000000  0.25054000  1.0
  F  F27  4  0.26790000  0.16444000  0.89084000  1.0
  F  F28  2  0.16960000  0.25000000  0.02539000  1.0
