# generated using pymatgen
data_TbDy(FeO3)2
_symmetry_space_group_name_H-M  'P b n m'
_cell_length_a   5.34900000
_cell_length_b   5.60890000
_cell_length_c   7.66870000
_cell_angle_alpha   90.00000000
_cell_angle_beta   90.00000000
_cell_angle_gamma   90.00000000
_symmetry_Int_Tables_number   62
_chemical_formula_structural   TbDy(FeO3)2
_chemical_formula_sum   'Tb2 Dy2 Fe4 O12'
_cell_volume   230.07638418
_cell_formula_units_Z   2
loop_
 _symmetry_equiv_pos_site_id
 _symmetry_equiv_pos_as_xyz
  1  'x, y, z'
  2  '-x, -y, -z'
  3  'x+1/2, -y+1/2, -z'
  4  '-x+1/2, y+1/2, z'
  5  '-x+1/2, y+1/2, -z+1/2'
  6  'x+1/2, -y+1/2, z+1/2'
  7  '-x, -y, z+1/2'
  8  'x, y, -z+1/2'
loop_
 _atom_type_symbol
 _atom_type_oxidation_number
  Tb0+  0.0
  Dy0+  0.0
  Fe0+  0.0
  O0+  0.0
loop_
 _atom_site_type_symbol
 _atom_site_label
 _atom_site_symmetry_multiplicity
 _atom_site_fract_x
 _atom_site_fract_y
 _atom_site_fract_z
 _atom_site_occupancy
  Tb0+  Tb0  4  0.01540000  0.93710000  0.75000000  0.5
  Dy0+  Dy1  4  0.01540000  0.93710000  0.75000000  0.5
  Fe0+  Fe2  4  0.00000000  0.50000000  0.00000000  1.0
  O0+  O3  8  0.19600000  0.19790000  0.55210000  1.0
  O0+  O4  4  0.11160000  0.45690000  0.25000000  1.0
