# generated using pymatgen
data_Li8Mn4Te2P16SO45
_symmetry_space_group_name_H-M  'P n m a'
_cell_length_a   9.42950000
_cell_length_b   9.27550000
_cell_length_c   10.09720000
_cell_angle_alpha   90.00000000
_cell_angle_beta   90.00000000
_cell_angle_gamma   90.00000000
_symmetry_Int_Tables_number   62
_chemical_formula_structural   Li8Mn4Te2P16SO45
_chemical_formula_sum   'Li8 Mn4 Te2 P16 S1 O45'
_cell_volume   883.13470791
_cell_formula_units_Z   1
loop_
 _symmetry_equiv_pos_site_id
 _symmetry_equiv_pos_as_xyz
  1  'x, y, z'
  2  '-x, -y, -z'
  3  '-x+1/2, -y, z+1/2'
  4  'x+1/2, y, -z+1/2'
  5  'x+1/2, -y+1/2, -z+1/2'
  6  '-x+1/2, y+1/2, z+1/2'
  7  '-x, y+1/2, -z'
  8  'x, -y+1/2, z'
loop_
 _atom_site_type_symbol
 _atom_site_label
 _atom_site_symmetry_multiplicity
 _atom_site_fract_x
 _atom_site_fract_y
 _atom_site_fract_z
 _atom_site_occupancy
  Li  Li0  8  0.00360000  0.10310000  0.33050000  1.0
  Mn  Mn1  4  0.01232000  0.25000000  0.69704200  1.0
  P  P2  8  0.20780000  0.53744000  0.11028600  1.0
  P  P3  4  0.19467000  0.75000000  0.89321000  1.0
  P  P4  4  0.22718000  0.25000000  0.98429000  1.0
  O+  O5  8  0.17247000  0.12374000  0.07702000  0.625
  S+  S6  8  0.17247000  0.12374000  0.07702000  0.125
  Te+  Te7  8  0.17247000  0.12374000  0.07702000  0.25
  O  O8  8  0.11642000  0.57235000  0.22611000  1.0
  O  O9  8  0.13548000  0.05951000  0.62027000  1.0
  O  O10  8  0.14811000  0.61634000  0.98227000  1.0
  O  O11  4  0.09963000  0.75000000  0.77630000  1.0
  O  O12  4  0.11443000  0.75000000  0.48024000  1.0
  O  O13  4  0.14661000  0.25000000  0.86024000  1.0
  O  O14  4  0.14967000  0.25000000  0.37467000  1.0
