# generated using pymatgen
data_Pr2.5Sm0.5Si3Po0.5B3Te0.5Se1.5S0.5O12
_symmetry_space_group_name_H-M  'P 31'
_cell_length_a   6.83800000
_cell_length_b   6.83800000
_cell_length_c   6.77300000
_cell_angle_alpha   90.00000000
_cell_angle_beta   90.00000000
_cell_angle_gamma   120.00000000
_symmetry_Int_Tables_number   144
_chemical_formula_structural   Pr2.5Sm0.5Si3Po0.5B3Te0.5Se1.5S0.5O12
_chemical_formula_sum
'Pr2.5 Sm0.5 Si3 Po0.5 B3 Te0.5 Se1.5 S0.5 O12'
_cell_volume   274.26469122
_cell_formula_units_Z   1
loop_
 _symmetry_equiv_pos_site_id
 _symmetry_equiv_pos_as_xyz
  1  'x, y, z'
  2  '-y, x-y, z+1/3'
  3  '-x+y, -x, z+2/3'
loop_
 _atom_site_type_symbol
 _atom_site_label
 _atom_site_symmetry_multiplicity
 _atom_site_fract_x
 _atom_site_fract_y
 _atom_site_fract_z
 _atom_site_occupancy
  Sm+  Sm0  3  0.00000000  0.59784000  0.33333333
  0.16666666666666666
  Pr+  Pr1  3  0.00000000  0.59784000  0.33333333
  0.8333333333333334
  Si  Si2  3  0.00000000  0.58250000  0.83233333  1
  B  B3  3  0.11100000  0.00100000  0.00000000  1
  Se+  Se4  3  0.53400000  0.13700000  0.66333333  0.5
  Po+  Po5  3  0.53400000  0.13700000  0.66333333
  0.16666666666666666
  Te+  Te6  3  0.53400000  0.13700000  0.66333333
  0.16666666666666666
  S+  S7  3  0.53400000  0.13700000  0.66333333  0.16666666666666666
  O  O8  3  0.00000000  0.03700000  0.83300000  1
  O  O9  3  0.13700000  0.53400000  0.66866667  1
  O  O10  3  0.15200000  0.80900000  0.97366667  1
  O  O11  3  0.34300000  0.19100000  0.02700000  1
