# generated using pymatgen
data_Fr0.75Cs0.25Li2H42C48I3O6
_symmetry_space_group_name_H-M  'P 31'
_cell_length_a   11.66780000
_cell_length_b   11.66780000
_cell_length_c   9.42350000
_cell_angle_alpha   90.00000000
_cell_angle_beta   90.00000000
_cell_angle_gamma   120.00000000
_symmetry_Int_Tables_number   144
_chemical_formula_structural   Fr0.75Cs0.25Li2H42C48I3O6
_chemical_formula_sum   'Fr0.75 Cs0.25 Li2 H42 C48 I3 O6'
_cell_volume   1111.01729344
_cell_formula_units_Z   1
loop_
 _symmetry_equiv_pos_site_id
 _symmetry_equiv_pos_as_xyz
  1  'x, y, z'
  2  '-y, x-y, z+1/3'
  3  '-x+y, -x, z+2/3'
loop_
 _atom_site_type_symbol
 _atom_site_label
 _atom_site_symmetry_multiplicity
 _atom_site_fract_x
 _atom_site_fract_y
 _atom_site_fract_z
 _atom_site_occupancy
  Fr+  Fr0  3  0.11610000  0.57490000  0.22263333  0.25
  Li+  Li1  3  0.11610000  0.57490000  0.22263333
  0.6666666666666666
  Cs+  Cs2  3  0.11610000  0.57490000  0.22263333
  0.08333333333333333
  H  H3  3  0.00540000  0.40500000  0.50426667  1.0
  H  H4  3  0.04110000  0.63810000  0.30133333  1.0
  H  H5  3  0.05450000  0.25320000  0.13596667  1.0
  H  H6  3  0.08800000  0.64890000  0.69203333  1.0
  H  H7  3  0.11740000  0.07720000  0.05583333  1.0
  H  H8  3  0.12630000  0.60670000  0.97603333  1.0
  H  H9  3  0.19810000  0.70680000  0.31153333  1.0
  H  H10  3  0.20840000  0.79010000  0.65893333  1.0
  H  H11  3  0.22330000  0.12190000  0.92833333  1.0
  H  H12  3  0.23330000  0.68110000  0.72423333  1.0
  H  H13  3  0.26800000  0.13090000  0.09063333  1.0
  H  H14  3  0.49230000  0.37100000  0.86800000  1.0
  H  H15  3  0.52310000  0.28590000  0.07500000  1.0
  H  H16  3  0.57280000  0.24170000  0.58023333  1.0
  C  C17  3  0.05450000  0.23050000  0.34786667  1.0
  C  C18  3  0.10540000  0.28790000  0.21856667  1.0
  C  C19  3  0.12120000  0.65600000  0.25263333  1.0
  C  C20  3  0.13220000  0.28520000  0.46606667  1.0
  C  C21  3  0.13680000  0.73800000  0.11893333  1.0
  C  C22  3  0.14180000  0.69300000  0.98603333  1.0
  C  C23  3  0.16530000  0.76610000  0.87083333  1.0
  C  C24  3  0.17440000  0.71620000  0.72173333  1.0
  C  C25  3  0.19810000  0.08180000  0.02233333  1.0
  C  C26  3  0.31290000  0.12970000  0.59143333  1.0
  C  C27  3  0.35270000  0.04920000  0.35743333  1.0
  C  C28  3  0.40040000  0.12180000  0.48053333  1.0
  C  C29  3  0.43510000  0.04600000  0.25263333  1.0
  C  C30  3  0.53770000  0.19210000  0.49823333  1.0
  C  C31  3  0.54870000  0.42880000  0.93960000  1.0
  C  C32  3  0.56900000  0.37830000  0.06030000  1.0
  I  I33  3  0.05908000  0.20231000  0.66616667  1.0
  O  O34  3  0.18790000  0.05900000  0.56423333  1.0
  O  O35  3  0.36100000  0.20080000  0.69553333  1.0
