# generated using pymatgen
data_Rb6Y3Po2Te3N15O39.66666667Lv0.33333333
_symmetry_space_group_name_H-M  'P 31'
_cell_length_a   11.23900000
_cell_length_b   11.23900000
_cell_length_c   9.41900000
_cell_angle_alpha   90.00000000
_cell_angle_beta   90.00000000
_cell_angle_gamma   120.00000000
_symmetry_Int_Tables_number   144
_chemical_formula_structural   Rb6Y3Po2Te3N15O39.66666667Lv0.33333333
_chemical_formula_sum
'Rb6 Y3 Po2 Te3 N15 O39.66666667 Lv0.33333333'
_cell_volume   1030.36422445
_cell_formula_units_Z   1
loop_
 _symmetry_equiv_pos_site_id
 _symmetry_equiv_pos_as_xyz
  1  'x, y, z'
  2  '-y, x-y, z+1/3'
  3  '-x+y, -x, z+2/3'
loop_
 _atom_type_symbol
 _atom_type_oxidation_number
  Rb0+  0.0
  Y0+  0.0
  Po0+  0.0
  Te0+  0.0
  N0+  0.0
  O0+  0.0
  Lv0+  0.0
loop_
 _atom_site_type_symbol
 _atom_site_label
 _atom_site_symmetry_multiplicity
 _atom_site_fract_x
 _atom_site_fract_y
 _atom_site_fract_z
 _atom_site_occupancy
  Rb0+  Rb0  3  0.12830000  0.79513000  0.62679667  1.0
  Rb0+  Rb1  3  0.39483000  0.33268000  0.45988667  1.0
  Y0+  Y2  3  0.34077000  0.00752000  0.12550000  1.0
  Te0+  Te3  3  0.04400000  0.48010000  0.86880000
  0.8888888888888888
  O0+  O4  3  0.04400000  0.48010000  0.86880000  0.1111111111111111
  N0+  N5  3  0.02550000  0.43340000  0.74810000  1.0
  N0+  N6  3  0.08430000  0.00250000  0.19540000  1.0
  N0+  N7  3  0.24670000  0.58290000  0.39300000  1.0
  N0+  N8  3  0.30750000  0.07600000  0.84010000  1.0
  N0+  N9  3  0.58440000  0.25330000  0.13430000  1.0
  O0+  O10  3  0.00180000  0.98020000  0.55150000  1.0
  O0+  O11  3  0.02930000  0.32770000  0.72040000  1.0
  O0+  O12  3  0.03200000  0.33680000  0.20813333  1.0
  O0+  O13  3  0.09410000  0.89880000  0.15630000  1.0
  O0+  O14  3  0.13350000  0.58320000  0.38756667  1.0
  O0+  O15  3  0.20000000  0.11360000  0.20180000  1.0
  O0+  O16  3  0.23410000  0.76530000  0.09860000  1.0
  O0+  O17  3  0.29310000  0.10420000  0.72010000  1.0
  O0+  O18  3  0.31290000  0.66840000  0.70946667  1.0
  O0+  O19  3  0.33250000  0.16010000  0.94350000  1.0
  O0+  O20  3  0.49460000  0.00150000  0.31806667  1.0
  O0+  O21  3  0.57300000  0.15340000  0.05763333  1.0
  O0+  O22  3  0.63880000  0.33300000  0.47163333  1.0
  Po0+  Po23  3  0.48720000  0.23990000  0.20186667
  0.6666666666666666
  O0+  O24  3  0.48720000  0.23990000  0.20186667
  0.1111111111111111
  Te0+  Te25  3  0.48720000  0.23990000  0.20186667
  0.1111111111111111
  Lv0+  Lv26  3  0.48720000  0.23990000  0.20186667
  0.1111111111111111
