# generated using pymatgen
data_Na1.5Li0.5H25C30Br3O12
_symmetry_space_group_name_H-M  'P 31'
_cell_length_a   9.38460000
_cell_length_b   9.38460000
_cell_length_c   10.71790000
_cell_angle_alpha   90.00000000
_cell_angle_beta   90.00000000
_cell_angle_gamma   120.00000000
_symmetry_Int_Tables_number   144
_chemical_formula_structural   Na1.5Li0.5H25C30Br3O12
_chemical_formula_sum   'Na1.5 Li0.5 H25 C30 Br3 O12'
_cell_volume   817.47007824
_cell_formula_units_Z   1
loop_
 _symmetry_equiv_pos_site_id
 _symmetry_equiv_pos_as_xyz
  1  'x, y, z'
  2  '-y, x-y, z+1/3'
  3  '-x+y, -x, z+2/3'
loop_
 _atom_site_type_symbol
 _atom_site_label
 _atom_site_symmetry_multiplicity
 _atom_site_fract_x
 _atom_site_fract_y
 _atom_site_fract_z
 _atom_site_occupancy
  Na+  Na0  3  0.08710000  0.00550000  0.27283333  0.5
  H+  H1  3  0.08710000  0.00550000  0.27283333  0.3333333333333333
  Li+  Li2  3  0.08710000  0.00550000  0.27283333
  0.16666666666666666
  H  H3  3  0.03450000  0.62640000  0.72413333  1.0
  H  H4  3  0.07640000  0.83340000  0.29433333  1.0
  H  H5  3  0.15850000  0.08910000  0.55996667  1.0
  H  H6  3  0.17260000  0.58580000  0.25486667  1.0
  H  H7  3  0.24540000  0.51350000  0.35496667  1.0
  H  H8  3  0.44950000  0.30230000  0.34170000  1.0
  H  H9  3  0.50610000  0.40250000  0.71010000  1.0
  H  H10  3  0.55430000  0.24030000  0.00323333  1.0
  C  C11  3  0.04900000  0.89700000  0.23793333  1.0
  C  C12  3  0.10840000  0.63880000  0.78813333  1.0
  C  C13  3  0.17120000  0.48590000  0.28336667  1.0
  C  C14  3  0.19200000  0.77970000  0.84783333  1.0
  C  C15  3  0.26440000  0.04560000  0.88663333  1.0
  C  C16  3  0.28880000  0.00700000  0.11463333  1.0
  C  C17  3  0.35630000  0.00450000  0.98513333  1.0
  C  C18  3  0.48600000  0.34210000  0.42280000  1.0
  C  C19  3  0.53140000  0.39170000  0.52390000  1.0
  C  C20  3  0.53890000  0.13200000  0.98153333  1.0
  Br  Br21  3  0.13993000  0.46194000  0.83382333  1.0
  O  O22  3  0.08750000  0.21540000  0.45156667  1.0
  O  O23  3  0.08760000  0.26020000  0.14606667  1.0
  O  O24  3  0.26790000  0.17280000  0.87143333  1.0
  O  O25  3  0.37220000  0.08370000  0.19963333  1.0
