# generated using pymatgen
data_Fr0.5Cs2Rb0.5P1H12C6Mc2S0.5O3Lv2.5
_symmetry_space_group_name_H-M  'P 31'
_cell_length_a   7.01670000
_cell_length_b   7.01670000
_cell_length_c   5.48940000
_cell_angle_alpha   90.00000000
_cell_angle_beta   90.00000000
_cell_angle_gamma   120.00000000
_symmetry_Int_Tables_number   144
_chemical_formula_structural   Fr0.5Cs2Rb0.5P1H12C6Mc2S0.5O3Lv2.5
_chemical_formula_sum   'Fr0.5 Cs2 Rb0.5 P1 H12 C6 Mc2 S0.5 O3 Lv2.5'
_cell_volume   234.05683437
_cell_formula_units_Z   1
loop_
 _symmetry_equiv_pos_site_id
 _symmetry_equiv_pos_as_xyz
  1  'x, y, z'
  2  '-y, x-y, z+1/3'
  3  '-x+y, -x, z+2/3'
loop_
 _atom_site_type_symbol
 _atom_site_label
 _atom_site_symmetry_multiplicity
 _atom_site_fract_x
 _atom_site_fract_y
 _atom_site_fract_z
 _atom_site_occupancy
  Cs+  Cs0  3  0.09650900  0.40925500  0.74570067
  0.6666666666666666
  Rb+  Rb1  3  0.09650900  0.40925500  0.74570067
  0.16666666666666666
  Fr+  Fr2  3  0.09650900  0.40925500  0.74570067
  0.16666666666666666
  H  H3  3  0.15880300  0.55929400  0.95123967  1.0
  H  H4  3  0.16951500  0.77935600  0.61349133  1.0
  H  H5  3  0.26235700  0.14145500  0.63722733  1.0
  H  H6  3  0.50905400  0.20079900  0.65788133  1.0
  C  C7  3  0.33410000  0.06040000  0.97293333  1.0
  C  C8  3  0.35890000  0.08990000  0.69663333  1.0
  P+  P9  3  0.11690000  0.42200000  0.90616667  0.3333333333333333
  Mc+  Mc10  3  0.11690000  0.42200000  0.90616667
  0.6666666666666666
  O  O11  3  0.11260000  0.43430000  0.39566667  1.0
  Lv+  Lv12  3  0.33530000  0.21200000  0.09303333
  0.8333333333333334
  S+  S13  3  0.33530000  0.21200000  0.09303333
  0.16666666666666666
