# generated using pymatgen
data_La3Si3Po2.5B3Te1Se1S1O9.5
_symmetry_space_group_name_H-M  'P 31'
_cell_length_a   6.83800000
_cell_length_b   6.83800000
_cell_length_c   6.77300000
_cell_angle_alpha   90.00000000
_cell_angle_beta   90.00000000
_cell_angle_gamma   120.00000000
_symmetry_Int_Tables_number   144
_chemical_formula_structural   La3Si3Po2.5B3Te1Se1S1O9.5
_chemical_formula_sum   'La3 Si3 Po2.5 B3 Te1 Se1 S1 O9.5'
_cell_volume   274.26469122
_cell_formula_units_Z   1
loop_
 _symmetry_equiv_pos_site_id
 _symmetry_equiv_pos_as_xyz
  1  'x, y, z'
  2  '-y, x-y, z+1/3'
  3  '-x+y, -x, z+2/3'
loop_
 _atom_type_symbol
 _atom_type_oxidation_number
  La0+  0.0
  Si0+  0.0
  Po0+  0.0
  B0+  0.0
  Te0+  0.0
  Se0+  0.0
  S0+  0.0
  O0+  0.0
loop_
 _atom_site_type_symbol
 _atom_site_label
 _atom_site_symmetry_multiplicity
 _atom_site_fract_x
 _atom_site_fract_y
 _atom_site_fract_z
 _atom_site_occupancy
  La0+  La0  3  0.00000000  0.59784000  0.33333333  1.0
  Si0+  Si1  3  0.00000000  0.58250000  0.83233333  1.0
  B0+  B2  3  0.11100000  0.00100000  0.00000000  1.0
  Po0+  Po3  3  0.34300000  0.19100000  0.02700000
  0.8333333333333334
  O0+  O4  3  0.34300000  0.19100000  0.02700000
  0.16666666666666666
  S0+  S5  3  0.53400000  0.13700000  0.66333333  0.3333333333333333
  Se0+  Se6  3  0.53400000  0.13700000  0.66333333
  0.3333333333333333
  Te0+  Te7  3  0.53400000  0.13700000  0.66333333
  0.3333333333333333
  O0+  O8  3  0.00000000  0.03700000  0.83300000  1.0
  O0+  O9  3  0.13700000  0.53400000  0.66866667  1.0
  O0+  O10  3  0.15200000  0.80900000  0.97366667  1.0
