# generated using pymatgen
data_Ni2.5Pd4.5Ds0.5Pt0.5S8
_symmetry_space_group_name_H-M  'P 42/m'
_cell_length_a   6.42870000
_cell_length_b   6.42870000
_cell_length_c   6.60820000
_cell_angle_alpha   90.00000000
_cell_angle_beta   90.00000000
_cell_angle_gamma   90.00000000
_symmetry_Int_Tables_number   84
_chemical_formula_structural   Ni2.5Pd4.5Ds0.5Pt0.5S8
_chemical_formula_sum   'Ni2.5 Pd4.5 Ds0.5 Pt0.5 S8'
_cell_volume   273.10490346
_cell_formula_units_Z   1
loop_
 _symmetry_equiv_pos_site_id
 _symmetry_equiv_pos_as_xyz
  1  'x, y, z'
  2  '-x, -y, -z'
  3  '-y, x, z+1/2'
  4  'y, -x, -z+1/2'
  5  '-x, -y, z'
  6  'x, y, -z'
  7  'y, -x, z+1/2'
  8  '-y, x, -z+1/2'
loop_
 _atom_type_symbol
 _atom_type_oxidation_number
  Ni0+  0.0
  Pd0+  0.0
  Pt0+  0.0
  S0+  0.0
  Ds0+  0.0
loop_
 _atom_site_type_symbol
 _atom_site_label
 _atom_site_symmetry_multiplicity
 _atom_site_fract_x
 _atom_site_fract_y
 _atom_site_fract_z
 _atom_site_occupancy
  Pd0+  Pd0  4  0.25000000  0.52500000  0.50000000  0.5
  Ni0+  Ni1  4  0.25000000  0.52500000  0.50000000  0.5
  Pd0+  Pd2  2  0.00000000  0.00000000  0.25000000  1.0
  Ni0+  Ni3  2  0.00000000  0.50000000  0.00000000  0.25
  Ds0+  Ds4  2  0.00000000  0.50000000  0.00000000  0.25
  Pt0+  Pt5  2  0.00000000  0.50000000  0.00000000  0.25
  Pd0+  Pd6  2  0.00000000  0.50000000  0.00000000  0.25
  S0+  S7  8  0.20000000  0.32000000  0.22000000  1.0
