# generated using pymatgen
data_Fr1.5Rb0.5As0.5N0.5Mc1Ts1Cl4F7
_symmetry_space_group_name_H-M  'P 42/m'
_cell_length_a   6.39300000
_cell_length_b   6.39300000
_cell_length_c   10.71700000
_cell_angle_alpha   90.00000000
_cell_angle_beta   90.00000000
_cell_angle_gamma   90.00000000
_symmetry_Int_Tables_number   84
_chemical_formula_structural   Fr1.5Rb0.5As0.5N0.5Mc1Ts1Cl4F7
_chemical_formula_sum   'Fr1.5 Rb0.5 As0.5 N0.5 Mc1 Ts1 Cl4 F7'
_cell_volume   438.00860193
_cell_formula_units_Z   1
loop_
 _symmetry_equiv_pos_site_id
 _symmetry_equiv_pos_as_xyz
  1  'x, y, z'
  2  '-x, -y, -z'
  3  '-y, x, z+1/2'
  4  'y, -x, -z+1/2'
  5  '-x, -y, z'
  6  'x, y, -z'
  7  'y, -x, z+1/2'
  8  '-y, x, -z+1/2'
loop_
 _atom_type_symbol
 _atom_type_oxidation_number
  Fr0+  0.0
  Rb0+  0.0
  As0+  0.0
  N0+  0.0
  Cl0+  0.0
  F0+  0.0
  Mc0+  0.0
  Ts0+  0.0
loop_
 _atom_site_type_symbol
 _atom_site_label
 _atom_site_symmetry_multiplicity
 _atom_site_fract_x
 _atom_site_fract_y
 _atom_site_fract_z
 _atom_site_occupancy
  Rb0+  Rb0  2  0.00000000  0.00000000  0.25000000  0.25
  Fr0+  Fr1  2  0.00000000  0.00000000  0.25000000  0.75
  As0+  As2  2  0.00000000  0.50000000  0.00000000  0.25
  N0+  N3  2  0.00000000  0.50000000  0.00000000  0.25
  Mc0+  Mc4  2  0.00000000  0.50000000  0.00000000  0.5
  Ts0+  Ts5  8  0.21590000  0.35170000  0.15570000  0.125
  F0+  F6  8  0.21590000  0.35170000  0.15570000  0.875
  Cl0+  Cl7  4  0.19590000  0.21290000  0.50000000  1.0
