# generated using pymatgen
data_K0.33333333Rb0.66666667Na3Li6At0.33333333I1.66666667Br4O4
_symmetry_space_group_name_H-M  'I -4 m 2'
_cell_length_a   4.02335000
_cell_length_b   4.02335000
_cell_length_c   21.56380000
_cell_angle_alpha   90.00000000
_cell_angle_beta   90.00000000
_cell_angle_gamma   90.00000000
_symmetry_Int_Tables_number   119
_chemical_formula_structural
K0.33333333Rb0.66666667Na3Li6At0.33333333I1.66666667Br4O4
_chemical_formula_sum
'K0.33333333 Rb0.66666667 Na3 Li6 At0.33333333 I1.66666667 Br4 O4'
_cell_volume   349.06067491
_cell_formula_units_Z   1
loop_
 _symmetry_equiv_pos_site_id
 _symmetry_equiv_pos_as_xyz
  1  'x, y, z'
  2  'y, -x, -z'
  3  '-x, -y, z'
  4  '-y, x, -z'
  5  '-x, y, z'
  6  '-y, -x, -z'
  7  'x, -y, z'
  8  'y, x, -z'
  9  'x+1/2, y+1/2, z+1/2'
  10  'y+1/2, -x+1/2, -z+1/2'
  11  '-x+1/2, -y+1/2, z+1/2'
  12  '-y+1/2, x+1/2, -z+1/2'
  13  '-x+1/2, y+1/2, z+1/2'
  14  '-y+1/2, -x+1/2, -z+1/2'
  15  'x+1/2, -y+1/2, z+1/2'
  16  'y+1/2, x+1/2, -z+1/2'
loop_
 _atom_type_symbol
 _atom_type_oxidation_number
  K0+  0.0
  Rb0+  0.0
  Na0+  0.0
  Li0+  0.0
  At0+  0.0
  I0+  0.0
  Br0+  0.0
  O0+  0.0
loop_
 _atom_site_type_symbol
 _atom_site_label
 _atom_site_symmetry_multiplicity
 _atom_site_fract_x
 _atom_site_fract_y
 _atom_site_fract_z
 _atom_site_occupancy
  Na0+  Na0  4  0.00000000  0.00000000  0.31390000  0.75
  K0+  K1  4  0.00000000  0.00000000  0.31390000
  0.08333333333333333
  Rb0+  Rb2  4  0.00000000  0.00000000  0.31390000
  0.16666666666666666
  Li0+  Li3  4  0.00000000  0.50000000  0.09000000  1.0
  Li0+  Li4  2  0.00000000  0.00000000  0.50000000  1.0
  I0+  I5  2  0.00000000  0.00000000  0.00000000  0.8333333333333334
  At0+  At6  2  0.00000000  0.00000000  0.00000000
  0.16666666666666666
  Br0+  Br7  4  0.00000000  0.00000000  0.18887000  1.0
  O0+  O8  4  0.00000000  0.00000000  0.40360000  1.0
