# generated using pymatgen
data_Li2Ca2Si2O5LvTe
_symmetry_space_group_name_H-M  'P 61 2 2'
_cell_length_a   5.09611000
_cell_length_b   5.09611000
_cell_length_c   41.26400000
_cell_angle_alpha   90.00000000
_cell_angle_beta   90.00000000
_cell_angle_gamma   120.00000000
_symmetry_Int_Tables_number   178
_chemical_formula_structural   Li2Ca2Si2O5LvTe
_chemical_formula_sum   'Li12 Ca12 Si12 O30 Lv6 Te6'
_cell_volume   928.06745628
_cell_formula_units_Z   6
loop_
 _symmetry_equiv_pos_site_id
 _symmetry_equiv_pos_as_xyz
  1  'x, y, z'
  2  'x-y, x, z+1/6'
  3  '-y, x-y, z+1/3'
  4  '-x, -y, z+1/2'
  5  '-x+y, -x, z+2/3'
  6  'y, -x+y, z+5/6'
  7  '-y, -x, -z+5/6'
  8  '-x, -x+y, -z+2/3'
  9  '-x+y, y, -z+1/2'
  10  'y, x, -z+1/3'
  11  'x, x-y, -z+1/6'
  12  'x-y, -y, -z'
loop_
 _atom_site_type_symbol
 _atom_site_label
 _atom_site_symmetry_multiplicity
 _atom_site_fract_x
 _atom_site_fract_y
 _atom_site_fract_z
 _atom_site_occupancy
  Li  Li0  12  0.28700000  0.59010000  0.52699000  1.0
  Ca  Ca1  6  0.00000000  0.03921000  0.33333333  1.0
  Ca  Ca2  6  0.03584000  0.96416000  0.91670000  1.0
  Si  Si3  12  0.27336000  0.62656000  0.78736733  1.0
  O  O4  12  0.04660000  0.38230000  0.29216333  1.0
  O  O5  12  0.13210000  0.47790000  0.02151000  1.0
  O  O6  6  0.22480000  0.61240000  0.08336667  1.0
  Lv+  Lv7  12  0.05810000  0.29270000  0.71146667  0.5
  Te+  Te8  12  0.05810000  0.29270000  0.71146667  0.5
