# generated using pymatgen
data_Nb4Po2Se3.5S1.5O0.5Lv0.5
_symmetry_space_group_name_H-M  'P -6 m 2'
_cell_length_a   3.44000000
_cell_length_b   3.44000000
_cell_length_c   25.24000000
_cell_angle_alpha   90.00000000
_cell_angle_beta   90.00000000
_cell_angle_gamma   120.00000000
_symmetry_Int_Tables_number   187
_chemical_formula_structural   Nb4Po2Se3.5S1.5O0.5Lv0.5
_chemical_formula_sum   'Nb4 Po2 Se3.5 S1.5 O0.5 Lv0.5'
_cell_volume   258.66452303
_cell_formula_units_Z   1
loop_
 _symmetry_equiv_pos_site_id
 _symmetry_equiv_pos_as_xyz
  1  'x, y, z'
  2  '-x+y, -x, -z'
  3  '-y, x-y, z'
  4  'x, y, -z'
  5  '-x+y, -x, z'
  6  '-y, x-y, -z'
  7  '-y, -x, -z'
  8  'x, x-y, z'
  9  '-x+y, y, -z'
  10  '-y, -x, z'
  11  'x, x-y, -z'
  12  '-x+y, y, z'
loop_
 _atom_site_type_symbol
 _atom_site_label
 _atom_site_symmetry_multiplicity
 _atom_site_fract_x
 _atom_site_fract_y
 _atom_site_fract_z
 _atom_site_occupancy
  Nb  Nb0  2  0.00000000  0.00000000  0.25000000  1.0
  Nb  Nb1  1  0.00000000  0.00000000  0.00000000  1.0
  Nb  Nb2  1  0.33333333  0.66666667  0.50000000  1.0
  Se+  Se3  2  0.66666667  0.33333333  0.31800000  0.25
  Po+  Po4  2  0.66666667  0.33333333  0.31800000  0.5
  S+  S5  2  0.66666667  0.33333333  0.31800000  0.25
  Se  Se6  2  0.00000000  0.00000000  0.43200000  1.0
  Se+  Se7  2  0.66666667  0.33333333  0.18500000  0.25
  O+  O8  2  0.66666667  0.33333333  0.18500000  0.25
  S+  S9  2  0.66666667  0.33333333  0.18500000  0.25
  Po+  Po10  2  0.66666667  0.33333333  0.18500000  0.25
  S+  S11  2  0.33333333  0.66666667  0.06600000  0.25
  Se+  Se12  2  0.33333333  0.66666667  0.06600000  0.25
  Lv+  Lv13  2  0.33333333  0.66666667  0.06600000  0.25
  Po+  Po14  2  0.33333333  0.66666667  0.06600000  0.25
