# generated using pymatgen
data_Eu1Ta2Te0.16666667Se0.5S0.16666667O5.16666667
_symmetry_space_group_name_H-M  'P m m m'
_cell_length_a   3.87710000
_cell_length_b   3.87710000
_cell_length_c   7.79600000
_cell_angle_alpha   90.00000000
_cell_angle_beta   90.00000000
_cell_angle_gamma   90.00000000
_symmetry_Int_Tables_number   47
_chemical_formula_structural
Eu1Ta2Te0.16666667Se0.5S0.16666667O5.16666667
_chemical_formula_sum
'Eu1 Ta2 Te0.16666667 Se0.5 S0.16666667 O5.16666667'
_cell_volume   117.18872678
_cell_formula_units_Z   1
loop_
 _symmetry_equiv_pos_site_id
 _symmetry_equiv_pos_as_xyz
  1  'x, y, z'
  2  '-x, -y, -z'
  3  '-x, -y, z'
  4  'x, y, -z'
  5  'x, -y, -z'
  6  '-x, y, z'
  7  '-x, y, -z'
  8  'x, -y, z'
loop_
 _atom_type_symbol
 _atom_type_oxidation_number
  Eu0+  0.0
  Ta0+  0.0
  Te0+  0.0
  Se0+  0.0
  S0+  0.0
  O0+  0.0
loop_
 _atom_site_type_symbol
 _atom_site_label
 _atom_site_symmetry_multiplicity
 _atom_site_fract_x
 _atom_site_fract_y
 _atom_site_fract_z
 _atom_site_occupancy
  Eu0+  Eu0  1  0.00000000  0.00000000  0.00000000  1.0
  Ta0+  Ta1  2  0.50000000  0.50000000  0.25950000  1.0
  Se0+  Se2  1  0.50000000  0.50000000  0.50000000  0.5
  S0+  S3  1  0.50000000  0.50000000  0.50000000
  0.16666666666666666
  Te0+  Te4  1  0.50000000  0.50000000  0.50000000
  0.16666666666666666
  O0+  O5  1  0.50000000  0.50000000  0.50000000
  0.16666666666666666
  O0+  O6  2  0.00000000  0.50000000  0.22100000  1.0
  O0+  O7  2  0.50000000  0.00000000  0.22400000  1.0
  O0+  O8  1  0.50000000  0.50000000  0.00000000  1.0
