# generated using pymatgen
data_Fe8Si8Se7.66666667S0.33333333O16
_symmetry_space_group_name_H-M  'C 1 2/c 1'
_cell_length_a   9.73000000
_cell_length_b   9.11000000
_cell_length_c   5.23000000
_cell_angle_alpha   90.00000000
_cell_angle_beta   107.80000000
_cell_angle_gamma   90.00000000
_symmetry_Int_Tables_number   15
_chemical_formula_structural   Fe8Si8Se7.66666667S0.33333333O16
_chemical_formula_sum   'Fe8 Si8 Se7.66666667 S0.33333333 O16'
_cell_volume   441.39649311
_cell_formula_units_Z   1
loop_
 _symmetry_equiv_pos_site_id
 _symmetry_equiv_pos_as_xyz
  1  'x, y, z'
  2  '-x, -y, -z'
  3  '-x, y, -z+1/2'
  4  'x, -y, z+1/2'
  5  'x+1/2, y+1/2, z'
  6  '-x+1/2, -y+1/2, -z'
  7  '-x+1/2, y+1/2, -z+1/2'
  8  'x+1/2, -y+1/2, z+1/2'
loop_
 _atom_site_type_symbol
 _atom_site_label
 _atom_site_symmetry_multiplicity
 _atom_site_fract_x
 _atom_site_fract_y
 _atom_site_fract_z
 _atom_site_occupancy
  Fe  Fe0  4  0.00000000  0.09900000  0.75000000  1
  Fe  Fe1  4  0.00000000  0.26300000  0.25000000  1
  Si  Si2  8  0.20400000  0.41500000  0.74800000  1
  Se+  Se3  8  0.12400000  0.09000000  0.15900000
  0.9583333333333334
  S+  S4  8  0.12400000  0.09000000  0.15900000
  0.041666666666666664
  O  O5  8  0.12500000  0.26000000  0.63800000  1
  O  O6  8  0.14100000  0.46900000  0.95500000  1
