# generated using pymatgen
data_Na0.33333333Li0.33333333Cd1Cu0.33333333Ag0.33333333H0.33333333Rg2Au0.33333
_symmetry_space_group_name_H-M  'P 3 1 2'
_cell_length_a   6.81070000
_cell_length_b   6.81070000
_cell_length_c   8.26650000
_cell_angle_alpha   90.00000000
_cell_angle_beta   90.00000000
_cell_angle_gamma   120.00000000
_symmetry_Int_Tables_number   149
_chemical_formula_structural
;
Na0.33333333Li0.33333333Cd1Cu0.33333333Ag0.33333333H0.33333333Rg2Au0.3
3333333C6N6
;
_chemical_formula_sum
;
Na0.33333333 Li0.33333333 Cd1 Cu0.33333333 Ag0.33333333 H0.33333333
Rg2 Au0.33333333 C6 N6
;
_cell_volume   332.07471095
_cell_formula_units_Z   1
loop_
 _symmetry_equiv_pos_site_id
 _symmetry_equiv_pos_as_xyz
  1  'x, y, z'
  2  '-y, x-y, z'
  3  '-x+y, -x, z'
  4  '-y, -x, -z'
  5  '-x+y, y, -z'
  6  'x, x-y, -z'
loop_
 _atom_site_type_symbol
 _atom_site_label
 _atom_site_symmetry_multiplicity
 _atom_site_fract_x
 _atom_site_fract_y
 _atom_site_fract_z
 _atom_site_occupancy
  H+  H0  1  0.33330000  0.66670000  0.00000000  0.3333333333333333
  Na+  Na1  1  0.33330000  0.66670000  0.00000000
  0.3333333333333333
  Li+  Li2  1  0.33330000  0.66670000  0.00000000
  0.3333333333333333
  Cd  Cd3  1  0.00000000  0.00000000  0.00000000  1.0
  Ag+  Ag4  3  0.50333000  0.00666000  0.50000000
  0.1111111111111111
  Rg+  Rg5  3  0.50333000  0.00666000  0.50000000
  0.6666666666666666
  Cu+  Cu6  3  0.50333000  0.00666000  0.50000000
  0.1111111111111111
  Au+  Au7  3  0.50333000  0.00666000  0.50000000
  0.1111111111111111
  C  C8  6  0.35800000  0.00330000  0.71030000  1.0
  N  N9  6  0.00250000  0.27330000  0.82940000  1.0
