# generated using pymatgen
data_H64C40N26Mc3(SbO4)3
_symmetry_space_group_name_H-M  'I 41'
_cell_length_a   9.74510000
_cell_length_b   9.74510000
_cell_length_c   14.17640000
_cell_angle_alpha   90.00000000
_cell_angle_beta   90.00000000
_cell_angle_gamma   90.00000000
_symmetry_Int_Tables_number   80
_chemical_formula_structural   H64C40N26Mc3(SbO4)3
_chemical_formula_sum   'H64 C40 N26 Mc3 Sb3 O12'
_cell_volume   1346.28981036
_cell_formula_units_Z   1
loop_
 _symmetry_equiv_pos_site_id
 _symmetry_equiv_pos_as_xyz
  1  'x, y, z'
  2  '-y, x+1/2, z+1/4'
  3  '-x, -y, z'
  4  'y, -x+1/2, z+1/4'
  5  'x+1/2, y+1/2, z+1/2'
  6  '-y+1/2, x, z+3/4'
  7  '-x+1/2, -y+1/2, z+1/2'
  8  'y+1/2, -x, z+3/4'
loop_
 _atom_site_type_symbol
 _atom_site_label
 _atom_site_symmetry_multiplicity
 _atom_site_fract_x
 _atom_site_fract_y
 _atom_site_fract_z
 _atom_site_occupancy
  H  H0  8  0.00300000  0.56910000  0.87570000  1.0
  H  H1  8  0.02180000  0.11730000  0.46740000  1.0
  H  H2  8  0.04020000  0.81420000  0.75840000  1.0
  H  H3  8  0.05470000  0.36260000  0.24500000  1.0
  H  H4  8  0.06500000  0.73480000  0.27350000  1.0
  H  H5  8  0.08090000  0.80550000  0.93700000  1.0
  H  H6  8  0.15840000  0.72330000  0.77340000  1.0
  H  H7  8  0.20710000  0.24140000  0.71980000  1.0
  C  C8  8  0.00600000  0.28060000  0.22750000  1.0
  C  C9  8  0.02720000  0.43060000  0.47750000  1.0
  C  C10  8  0.04620000  0.21280000  0.47010000  1.0
  C  C11  8  0.05890000  0.70020000  0.13080000  1.0
  C  C12  8  0.17580000  0.26070000  0.47220000  1.0
  N  N13  8  0.04730000  0.68300000  0.47370000  1.0
  N  N14  8  0.09910000  0.16390000  0.22750000  1.0
  N  N15  8  0.11640000  0.83320000  0.88130000  1.0
  Mc+  Mc16  8  0.08190000  0.75780000  0.79990000  0.375
  N+  N17  8  0.08190000  0.75780000  0.79990000  0.25
  Sb+  Sb18  8  0.08190000  0.75780000  0.79990000  0.375
  O  O19  8  0.01300000  0.75470000  0.05990000  1.0
  O  O20  4  0.00000000  0.00000000  0.66219000  1.0
