# generated using pymatgen
data_Sr4Li8Al16Po0.5P16S6.5O73
_symmetry_space_group_name_H-M  'I m c b'
_cell_length_a   11.55600000
_cell_length_b   15.84700000
_cell_length_c   7.31500000
_cell_angle_alpha   90.00000000
_cell_angle_beta   90.00000000
_cell_angle_gamma   90.00000000
_symmetry_Int_Tables_number   72
_chemical_formula_structural   Sr4Li8Al16Po0.5P16S6.5O73
_chemical_formula_sum   'Sr4 Li8 Al16 Po0.5 P16 S6.5 O73'
_cell_volume   1339.58082258
_cell_formula_units_Z   1
loop_
 _symmetry_equiv_pos_site_id
 _symmetry_equiv_pos_as_xyz
  1  'x, y, z'
  2  '-x, -y, -z'
  3  'x, -y, -z'
  4  '-x, y, z'
  5  '-x+1/2, -y, z'
  6  'x+1/2, y, -z'
  7  '-x+1/2, y, -z'
  8  'x+1/2, -y, z'
  9  'x+1/2, y+1/2, z+1/2'
  10  '-x+1/2, -y+1/2, -z+1/2'
  11  'x+1/2, -y+1/2, -z+1/2'
  12  '-x+1/2, y+1/2, z+1/2'
  13  '-x, -y+1/2, z+1/2'
  14  'x, y+1/2, -z+1/2'
  15  '-x, y+1/2, -z+1/2'
  16  'x, -y+1/2, z+1/2'
loop_
 _atom_site_type_symbol
 _atom_site_label
 _atom_site_symmetry_multiplicity
 _atom_site_fract_x
 _atom_site_fract_y
 _atom_site_fract_z
 _atom_site_occupancy
  Sr  Sr0  4  0.25000000  0.00000000  0.00000000  1
  Li  Li1  8  0.00000000  0.21490000  0.22770000  1
  Al  Al2  16  0.13070000  0.12730000  0.63740000  1
  P  P3  8  0.00000000  0.04240000  0.27310000  1
  P  P4  8  0.25000000  0.20780000  0.00000000  1
  O+  O5  8  0.00000000  0.10070000  0.11070000  0.125
  Po+  Po6  8  0.00000000  0.10070000  0.11070000  0.0625
  S+  S7  8  0.00000000  0.10070000  0.11070000  0.8125
  O  O8  16  0.10830000  0.01430000  0.72750000  1
  O  O9  16  0.14380000  0.23680000  0.53870000  1
  O  O10  16  0.22570000  0.14850000  0.83890000  1
  O  O11  8  0.00000000  0.09860000  0.45020000  1
  O  O12  8  0.00000000  0.16370000  0.76060000  1
  O  O13  8  0.25000000  0.08830000  0.50000000  1
