# generated using pymatgen
data_Ra2SrCa12Be(Si3Ag)8
_symmetry_space_group_name_H-M  'F m m m'
_cell_length_a   8.31500000
_cell_length_b   14.39100000
_cell_length_c   8.64600000
_cell_angle_alpha   90.00000000
_cell_angle_beta   90.00000000
_cell_angle_gamma   90.00000000
_symmetry_Int_Tables_number   69
_chemical_formula_structural   Ra2SrCa12Be(Si3Ag)8
_chemical_formula_sum   'Ra2 Sr1 Ca12 Be1 Si24 Ag8'
_cell_volume   1034.59043259
_cell_formula_units_Z   1
loop_
 _symmetry_equiv_pos_site_id
 _symmetry_equiv_pos_as_xyz
  1  'x, y, z'
  2  '-x, -y, -z'
  3  '-x, y, -z'
  4  'x, -y, z'
  5  'x, -y, -z'
  6  '-x, y, z'
  7  '-x, -y, z'
  8  'x, y, -z'
  9  'x+1/2, y+1/2, z'
  10  '-x+1/2, -y+1/2, -z'
  11  '-x+1/2, y+1/2, -z'
  12  'x+1/2, -y+1/2, z'
  13  'x+1/2, -y+1/2, -z'
  14  '-x+1/2, y+1/2, z'
  15  '-x+1/2, -y+1/2, z'
  16  'x+1/2, y+1/2, -z'
  17  'x+1/2, y, z+1/2'
  18  '-x+1/2, -y, -z+1/2'
  19  '-x+1/2, y, -z+1/2'
  20  'x+1/2, -y, z+1/2'
  21  'x+1/2, -y, -z+1/2'
  22  '-x+1/2, y, z+1/2'
  23  '-x+1/2, -y, z+1/2'
  24  'x+1/2, y, -z+1/2'
  25  'x, y+1/2, z+1/2'
  26  '-x, -y+1/2, -z+1/2'
  27  '-x, y+1/2, -z+1/2'
  28  'x, -y+1/2, z+1/2'
  29  'x, -y+1/2, -z+1/2'
  30  '-x, y+1/2, z+1/2'
  31  '-x, -y+1/2, z+1/2'
  32  'x, y+1/2, -z+1/2'
loop_
 _atom_type_symbol
 _atom_type_oxidation_number
  Ra0+  0.0
  Sr0+  0.0
  Ca0+  0.0
  Be0+  0.0
  Si0+  0.0
  Ag0+  0.0
loop_
 _atom_site_type_symbol
 _atom_site_label
 _atom_site_symmetry_multiplicity
 _atom_site_fract_x
 _atom_site_fract_y
 _atom_site_fract_z
 _atom_site_occupancy
  Ca0+  Ca0  8  0.00000000  0.00000000  0.24885000  1.0
  Ca0+  Ca1  8  0.25000000  0.25000000  0.25000000  0.5
  Ra0+  Ra2  8  0.25000000  0.25000000  0.25000000  0.25
  Sr0+  Sr3  8  0.25000000  0.25000000  0.25000000  0.125
  Be0+  Be4  8  0.25000000  0.25000000  0.25000000  0.125
  Si0+  Si5  16  0.24403000  0.08070000  0.00000000  1.0
  Si0+  Si6  8  0.00000000  0.16180000  0.00000000  1.0
  Ag0+  Ag7  8  0.00000000  0.16666667  0.50000000  1.0
