# generated using pymatgen
data_Mn2H18At0.11111111C8I1.66666667N2Ts0.22222222Cl4F2
_symmetry_space_group_name_H-M  'P 1 21 1'
_cell_length_a   7.62200000
_cell_length_b   6.48800000
_cell_length_c   9.59480000
_cell_angle_alpha   90.00000000
_cell_angle_beta   112.47400000
_cell_angle_gamma   90.00000000
_symmetry_Int_Tables_number   4
_chemical_formula_structural
Mn2H18At0.11111111C8I1.66666667N2Ts0.22222222Cl4F2
_chemical_formula_sum
'Mn2 H18 At0.11111111 C8 I1.66666667 N2 Ts0.22222222 Cl4 F2'
_cell_volume   438.44249193
_cell_formula_units_Z   1
loop_
 _symmetry_equiv_pos_site_id
 _symmetry_equiv_pos_as_xyz
  1  'x, y, z'
  2  '-x, y+1/2, -z'
loop_
 _atom_site_type_symbol
 _atom_site_label
 _atom_site_symmetry_multiplicity
 _atom_site_fract_x
 _atom_site_fract_y
 _atom_site_fract_z
 _atom_site_occupancy
  Mn  Mn0  2  0.00103000  0.99891000  0.00280000  1.0
  H  H1  2  0.11110000  0.61720000  0.55990000  1.0
  H  H2  2  0.17080000  0.87450000  0.42760000  1.0
  H  H3  2  0.21710000  0.04660000  0.63510000  1.0
  H  H4  2  0.27430000  0.51260000  0.52150000  1.0
  H  H5  2  0.30980000  0.56660000  0.79710000  1.0
  H  H6  2  0.34740000  0.88840000  0.83580000  1.0
  H  H7  2  0.42310000  0.07070000  0.63560000  1.0
  H  H8  2  0.47250000  0.37570000  0.18040000  1.0
  H  H9  2  0.48930000  0.56130000  0.75330000  1.0
  C  C10  2  0.24330000  0.62750000  0.57260000  1.0
  C  C11  2  0.28180000  0.82750000  0.51410000  1.0
  C  C12  2  0.32930000  0.97210000  0.63930000  1.0
  C  C13  2  0.37060000  0.63180000  0.73640000  1.0
  N  N14  2  0.40360000  0.85230000  0.77340000  1.0
  I+  I15  2  0.16442000  0.24530000  0.88597000  0.8333333333333334
  At+  At16  2  0.16442000  0.24530000  0.88597000
  0.05555555555555555
  Ts+  Ts17  2  0.16442000  0.24530000  0.88597000
  0.1111111111111111
  Cl  Cl18  2  0.12187000  0.25320000  0.22418000  1.0
  Cl  Cl19  2  0.27971000  0.74720000  0.09004000  1.0
  F  F20  2  0.42530000  0.79940000  0.47690000  1.0
