# generated using pymatgen
data_Bi0.33333333B2Sb0.33333333As1Mc0.33333333S8
_symmetry_space_group_name_H-M  'I 2 2 2'
_cell_length_a   5.60000000
_cell_length_b   5.25000000
_cell_length_c   9.04000000
_cell_angle_alpha   90.00000000
_cell_angle_beta   90.00000000
_cell_angle_gamma   90.00000000
_symmetry_Int_Tables_number   23
_chemical_formula_structural
Bi0.33333333B2Sb0.33333333As1Mc0.33333333S8
_chemical_formula_sum
'Bi0.33333333 B2 Sb0.33333333 As1 Mc0.33333333 S8'
_cell_volume   265.77600000
_cell_formula_units_Z   1
loop_
 _symmetry_equiv_pos_site_id
 _symmetry_equiv_pos_as_xyz
  1  'x, y, z'
  2  '-x, -y, z'
  3  '-x, y, -z'
  4  'x, -y, -z'
  5  'x+1/2, y+1/2, z+1/2'
  6  '-x+1/2, -y+1/2, z+1/2'
  7  '-x+1/2, y+1/2, -z+1/2'
  8  'x+1/2, -y+1/2, -z+1/2'
loop_
 _atom_type_symbol
 _atom_type_oxidation_number
  Bi0+  0.0
  B0+  0.0
  Sb0+  0.0
  As0+  0.0
  S0+  0.0
  Mc0+  0.0
loop_
 _atom_site_type_symbol
 _atom_site_label
 _atom_site_symmetry_multiplicity
 _atom_site_fract_x
 _atom_site_fract_y
 _atom_site_fract_z
 _atom_site_occupancy
  B0+  B0  2  0.00000000  0.50000000  0.00000000  1.0
  As0+  As1  2  0.00000000  0.00000000  0.00000000  0.5
  Bi0+  Bi2  2  0.00000000  0.00000000  0.00000000
  0.16666666666666666
  Sb0+  Sb3  2  0.00000000  0.00000000  0.00000000
  0.16666666666666666
  Mc0+  Mc4  2  0.00000000  0.00000000  0.00000000
  0.16666666666666666
  S0+  S5  8  0.20000000  0.29000000  0.11500000  1.0
