# generated using pymatgen
data_Db0.33333333Ta0.33333333Nb0.16666667V0.16666667Se2
_symmetry_space_group_name_H-M  'P -3 m 1'
_cell_length_a   3.35500000
_cell_length_b   3.35500000
_cell_length_c   6.13400000
_cell_angle_alpha   90.00000000
_cell_angle_beta   90.00000000
_cell_angle_gamma   120.00000000
_symmetry_Int_Tables_number   164
_chemical_formula_structural
Db0.33333333Ta0.33333333Nb0.16666667V0.16666667Se2
_chemical_formula_sum
'Db0.33333333 Ta0.33333333 Nb0.16666667 V0.16666667 Se2'
_cell_volume   59.79425406
_cell_formula_units_Z   1
loop_
 _symmetry_equiv_pos_site_id
 _symmetry_equiv_pos_as_xyz
  1  'x, y, z'
  2  '-x, -y, -z'
  3  '-y, x-y, z'
  4  'y, -x+y, -z'
  5  '-x+y, -x, z'
  6  'x-y, x, -z'
  7  'y, x, -z'
  8  '-y, -x, z'
  9  'x-y, -y, -z'
  10  '-x+y, y, z'
  11  '-x, -x+y, -z'
  12  'x, x-y, z'
loop_
 _atom_site_type_symbol
 _atom_site_label
 _atom_site_symmetry_multiplicity
 _atom_site_fract_x
 _atom_site_fract_y
 _atom_site_fract_z
 _atom_site_occupancy
  Db+  Db0  1  0.00000000  0.00000000  0.00000000
  0.3333333333333333
  Nb+  Nb1  1  0.00000000  0.00000000  0.00000000
  0.16666666666666666
  V+  V2  1  0.00000000  0.00000000  0.00000000  0.16666666666666666
  Ta+  Ta3  1  0.00000000  0.00000000  0.00000000
  0.3333333333333333
  Se  Se4  2  0.33333333  0.66666667  0.25000000  1.0
