# generated using pymatgen
data_La0.66666667Nd0.16666667Tm1.16666667Se1O2
_symmetry_space_group_name_H-M  'P -3 m 1'
_cell_length_a   3.80700000
_cell_length_b   3.80700000
_cell_length_c   6.76600000
_cell_angle_alpha   90.00000000
_cell_angle_beta   90.00000000
_cell_angle_gamma   120.00000000
_symmetry_Int_Tables_number   164
_chemical_formula_structural
La0.66666667Nd0.16666667Tm1.16666667Se1O2
_chemical_formula_sum
'La0.66666667 Nd0.16666667 Tm1.16666667 Se1 O2'
_cell_volume   84.92359662
_cell_formula_units_Z   1
loop_
 _symmetry_equiv_pos_site_id
 _symmetry_equiv_pos_as_xyz
  1  'x, y, z'
  2  '-x, -y, -z'
  3  '-y, x-y, z'
  4  'y, -x+y, -z'
  5  '-x+y, -x, z'
  6  'x-y, x, -z'
  7  'y, x, -z'
  8  '-y, -x, z'
  9  'x-y, -y, -z'
  10  '-x+y, y, z'
  11  '-x, -x+y, -z'
  12  'x, x-y, z'
loop_
 _atom_type_symbol
 _atom_type_oxidation_number
  La0+  0.0
  Nd0+  0.0
  Tm0+  0.0
  Se0+  0.0
  O0+  0.0
loop_
 _atom_site_type_symbol
 _atom_site_label
 _atom_site_symmetry_multiplicity
 _atom_site_fract_x
 _atom_site_fract_y
 _atom_site_fract_z
 _atom_site_occupancy
  Tm0+  Tm0  2  0.33333333  0.66666667  0.29000000
  0.5833333333333334
  Nd0+  Nd1  2  0.33333333  0.66666667  0.29000000
  0.08333333333333333
  La0+  La2  2  0.33333333  0.66666667  0.29000000
  0.3333333333333333
  Se0+  Se3  1  0.00000000  0.00000000  0.00000000  1.0
  O0+  O4  2  0.33333333  0.66666667  0.62000000  1.0
