# generated using pymatgen
data_Li0.5H0.5Rg2Ag0.5Po0.5Te0.5Au0.5Lv0.5O0.5
_symmetry_space_group_name_H-M  'P -3 m 1'
_cell_length_a   6.11200000
_cell_length_b   6.11200000
_cell_length_c   5.22400000
_cell_angle_alpha   90.00000000
_cell_angle_beta   90.00000000
_cell_angle_gamma   120.00000000
_symmetry_Int_Tables_number   164
_chemical_formula_structural
Li0.5H0.5Rg2Ag0.5Po0.5Te0.5Au0.5Lv0.5O0.5
_chemical_formula_sum
'Li0.5 H0.5 Rg2 Ag0.5 Po0.5 Te0.5 Au0.5 Lv0.5 O0.5'
_cell_volume   169.00536491
_cell_formula_units_Z   1
loop_
 _symmetry_equiv_pos_site_id
 _symmetry_equiv_pos_as_xyz
  1  'x, y, z'
  2  '-x, -y, -z'
  3  '-y, x-y, z'
  4  'y, -x+y, -z'
  5  '-x+y, -x, z'
  6  'x-y, x, -z'
  7  'y, x, -z'
  8  '-y, -x, z'
  9  'x-y, -y, -z'
  10  '-x+y, y, z'
  11  '-x, -x+y, -z'
  12  'x, x-y, z'
loop_
 _atom_type_symbol
 _atom_type_oxidation_number
  Li0+  0.0
  Ag0+  0.0
  Po0+  0.0
  Te0+  0.0
  H0+  0.0
  Au0+  0.0
  O0+  0.0
  Lv0+  0.0
  Rg0+  0.0
loop_
 _atom_site_type_symbol
 _atom_site_label
 _atom_site_symmetry_multiplicity
 _atom_site_fract_x
 _atom_site_fract_y
 _atom_site_fract_z
 _atom_site_occupancy
  Li0+  Li0  1  0.00000000  0.00000000  0.50000000  0.5
  H0+  H1  1  0.00000000  0.00000000  0.50000000  0.5
  Rg0+  Rg2  3  0.00000000  0.50000000  0.00000000
  0.6666666666666666
  Ag0+  Ag3  3  0.00000000  0.50000000  0.00000000
  0.16666666666666666
  Au0+  Au4  3  0.00000000  0.50000000  0.00000000
  0.16666666666666666
  Te0+  Te5  2  0.33333333  0.66666667  0.67500000  0.25
  Lv0+  Lv6  2  0.33333333  0.66666667  0.67500000  0.25
  O0+  O7  2  0.33333333  0.66666667  0.67500000  0.25
  Po0+  Po8  2  0.33333333  0.66666667  0.67500000  0.25
