# generated using pymatgen
data_Db0.5Nb0.5At0.5I0.5Br0.5Ts0.5
_symmetry_space_group_name_H-M  'P -3 m 1'
_cell_length_a   3.60000000
_cell_length_b   3.60000000
_cell_length_c   5.83000000
_cell_angle_alpha   90.00000000
_cell_angle_beta   90.00000000
_cell_angle_gamma   120.00000000
_symmetry_Int_Tables_number   164
_chemical_formula_structural   Db0.5Nb0.5At0.5I0.5Br0.5Ts0.5
_chemical_formula_sum   'Db0.5 Nb0.5 At0.5 I0.5 Br0.5 Ts0.5'
_cell_volume   65.43410823
_cell_formula_units_Z   1
loop_
 _symmetry_equiv_pos_site_id
 _symmetry_equiv_pos_as_xyz
  1  'x, y, z'
  2  '-x, -y, -z'
  3  '-y, x-y, z'
  4  'y, -x+y, -z'
  5  '-x+y, -x, z'
  6  'x-y, x, -z'
  7  'y, x, -z'
  8  '-y, -x, z'
  9  'x-y, -y, -z'
  10  '-x+y, y, z'
  11  '-x, -x+y, -z'
  12  'x, x-y, z'
loop_
 _atom_type_symbol
 _atom_type_oxidation_number
  Nb0+  0.0
  At0+  0.0
  I0+  0.0
  Br0+  0.0
  Db0+  0.0
  Ts0+  0.0
loop_
 _atom_site_type_symbol
 _atom_site_label
 _atom_site_symmetry_multiplicity
 _atom_site_fract_x
 _atom_site_fract_y
 _atom_site_fract_z
 _atom_site_occupancy
  Db0+  Db0  1  0.00000000  0.00000000  0.00000000  0.5
  Nb0+  Nb1  1  0.00000000  0.00000000  0.00000000  0.5
  Br0+  Br2  2  0.33333333  0.66666667  0.25000000  0.25
  I0+  I3  2  0.33333333  0.66666667  0.25000000  0.25
  At0+  At4  2  0.33333333  0.66666667  0.25000000  0.25
  Ts0+  Ts5  2  0.33333333  0.66666667  0.25000000  0.25
