# generated using pymatgen
data_Fr1Cs0.5Rb1Na1.5P4O16
_symmetry_space_group_name_H-M  'I -4 2 d'
_cell_length_a   7.61600000
_cell_length_b   7.61600000
_cell_length_c   7.29300000
_cell_angle_alpha   90.00000000
_cell_angle_beta   90.00000000
_cell_angle_gamma   90.00000000
_symmetry_Int_Tables_number   122
_chemical_formula_structural   Fr1Cs0.5Rb1Na1.5P4O16
_chemical_formula_sum   'Fr1 Cs0.5 Rb1 Na1.5 P4 O16'
_cell_volume   423.01920461
_cell_formula_units_Z   1
loop_
 _symmetry_equiv_pos_site_id
 _symmetry_equiv_pos_as_xyz
  1  'x, y, z'
  2  'y, -x, -z'
  3  '-x, -y, z'
  4  '-y, x, -z'
  5  'x+1/2, -y, -z+3/4'
  6  'y+1/2, x, z+3/4'
  7  '-x+1/2, y, -z+3/4'
  8  '-y+1/2, -x, z+3/4'
  9  'x+1/2, y+1/2, z+1/2'
  10  'y+1/2, -x+1/2, -z+1/2'
  11  '-x+1/2, -y+1/2, z+1/2'
  12  '-y+1/2, x+1/2, -z+1/2'
  13  'x, -y+1/2, -z+1/4'
  14  'y, x+1/2, z+1/4'
  15  '-x, y+1/2, -z+1/4'
  16  '-y, -x+1/2, z+1/4'
loop_
 _atom_type_symbol
 _atom_type_oxidation_number
  Fr0+  0.0
  Cs0+  0.0
  Rb0+  0.0
  Na0+  0.0
  P0+  0.0
  O0+  0.0
loop_
 _atom_site_type_symbol
 _atom_site_label
 _atom_site_symmetry_multiplicity
 _atom_site_fract_x
 _atom_site_fract_y
 _atom_site_fract_z
 _atom_site_occupancy
  Fr0+  Fr0  4  0.00000000  0.00000000  0.50000000  0.25
  Na0+  Na1  4  0.00000000  0.00000000  0.50000000  0.375
  Cs0+  Cs2  4  0.00000000  0.00000000  0.50000000  0.125
  Rb0+  Rb3  4  0.00000000  0.00000000  0.50000000  0.25
  P0+  P4  4  0.00000000  0.00000000  0.00000000  1.0
  O0+  O5  16  0.08610000  0.85800000  0.87850000  1.0
