# generated using pymatgen
data_RbLi2Bi5SbP4HN2
_symmetry_space_group_name_H-M  'I -4 2 d'
_cell_length_a   4.97210000
_cell_length_b   4.97210000
_cell_length_c   6.97600000
_cell_angle_alpha   90.00000000
_cell_angle_beta   90.00000000
_cell_angle_gamma   90.00000000
_symmetry_Int_Tables_number   122
_chemical_formula_structural   RbLi2Bi5SbP4HN2
_chemical_formula_sum   'Rb1 Li2 Bi5 Sb1 P4 H1 N2'
_cell_volume   172.45912619
_cell_formula_units_Z   1
loop_
 _symmetry_equiv_pos_site_id
 _symmetry_equiv_pos_as_xyz
  1  'x, y, z'
  2  'y, -x, -z'
  3  '-x, -y, z'
  4  '-y, x, -z'
  5  'x+1/2, -y, -z+3/4'
  6  'y+1/2, x, z+3/4'
  7  '-x+1/2, y, -z+3/4'
  8  '-y+1/2, -x, z+3/4'
  9  'x+1/2, y+1/2, z+1/2'
  10  'y+1/2, -x+1/2, -z+1/2'
  11  '-x+1/2, -y+1/2, z+1/2'
  12  '-y+1/2, x+1/2, -z+1/2'
  13  'x, -y+1/2, -z+1/4'
  14  'y, x+1/2, z+1/4'
  15  '-x, y+1/2, -z+1/4'
  16  '-y, -x+1/2, z+1/4'
loop_
 _atom_type_symbol
 _atom_type_oxidation_number
  Rb0+  0.0
  Li0+  0.0
  Bi0+  0.0
  Sb0+  0.0
  P0+  0.0
  H0+  0.0
  N0+  0.0
loop_
 _atom_site_type_symbol
 _atom_site_label
 _atom_site_symmetry_multiplicity
 _atom_site_fract_x
 _atom_site_fract_y
 _atom_site_fract_z
 _atom_site_occupancy
  Rb0+  Rb0  4  0.00000000  0.00000000  0.50000000  0.25
  H0+  H1  4  0.00000000  0.00000000  0.50000000  0.25
  Li0+  Li2  4  0.00000000  0.00000000  0.50000000  0.5
  P0+  P3  4  0.00000000  0.00000000  0.00000000  1.0
  Bi0+  Bi4  8  0.12390000  0.25000000  0.12500000  0.625
  N0+  N5  8  0.12390000  0.25000000  0.12500000  0.25
  Sb0+  Sb6  8  0.12390000  0.25000000  0.12500000  0.125
