# generated using pymatgen
data_No1.16666667Am0.66666667Cm0.16666667Ga12
_symmetry_space_group_name_H-M  'P 4/n b m :1'
_cell_length_a   5.94200000
_cell_length_b   5.94200000
_cell_length_c   7.61700000
_cell_angle_alpha   90.00000000
_cell_angle_beta   90.00000000
_cell_angle_gamma   90.00000000
_symmetry_Int_Tables_number   125
_chemical_formula_structural
No1.16666667Am0.66666667Cm0.16666667Ga12
_chemical_formula_sum   'No1.16666667 Am0.66666667 Cm0.16666667 Ga12'
_cell_volume   268.93619159
_cell_formula_units_Z   1
loop_
 _symmetry_equiv_pos_site_id
 _symmetry_equiv_pos_as_xyz
  1  'x, y, z'
  2  '-y, x, z'
  3  '-x, -y, z'
  4  'y, -x, z'
  5  'x, -y, -z'
  6  '-y, -x, -z'
  7  '-x, y, -z'
  8  'y, x, -z'
  9  '-x+1/2, -y+1/2, -z'
  10  'y+1/2, -x+1/2, -z'
  11  'x+1/2, y+1/2, -z'
  12  '-y+1/2, x+1/2, -z'
  13  '-x+1/2, y+1/2, z'
  14  'y+1/2, x+1/2, z'
  15  'x+1/2, -y+1/2, z'
  16  '-y+1/2, -x+1/2, z'
loop_
 _atom_site_type_symbol
 _atom_site_label
 _atom_site_symmetry_multiplicity
 _atom_site_fract_x
 _atom_site_fract_y
 _atom_site_fract_z
 _atom_site_occupancy
  No+  No0  2  0.00000000  0.50000000  0.00000000
  0.5833333333333334
  Am+  Am1  2  0.00000000  0.50000000  0.00000000
  0.3333333333333333
  Cm+  Cm2  2  0.00000000  0.50000000  0.00000000
  0.08333333333333333
  Ga  Ga3  8  0.18700000  0.31300000  0.65000000  1.0
  Ga  Ga4  4  0.00000000  0.00000000  0.16700000  1.0
