# generated using pymatgen
data_Cu2B2H18C16I2.66666667Br0.66666667N8Cl0.66666667F8
_symmetry_space_group_name_H-M  'P 4/n b m :2'
_cell_length_a   9.69010000
_cell_length_b   9.69010000
_cell_length_c   6.61930000
_cell_angle_alpha   90.00000000
_cell_angle_beta   90.00000000
_cell_angle_gamma   90.00000000
_symmetry_Int_Tables_number   125
_chemical_formula_structural
Cu2B2H18C16I2.66666667Br0.66666667N8Cl0.66666667F8
_chemical_formula_sum
'Cu2 B2 H18 C16 I2.66666667 Br0.66666667 N8 Cl0.66666667 F8'
_cell_volume   621.53928300
_cell_formula_units_Z   1
loop_
 _symmetry_equiv_pos_site_id
 _symmetry_equiv_pos_as_xyz
  1  'x, y, z'
  2  '-y+1/2, x, z'
  3  '-x+1/2, -y+1/2, z'
  4  'y, -x+1/2, z'
  5  'x, -y+1/2, -z'
  6  '-y+1/2, -x+1/2, -z'
  7  '-x+1/2, y, -z'
  8  'y, x, -z'
  9  '-x, -y, -z'
  10  'y+1/2, -x, -z'
  11  'x+1/2, y+1/2, -z'
  12  '-y, x+1/2, -z'
  13  '-x, y+1/2, z'
  14  'y+1/2, x+1/2, z'
  15  'x+1/2, -y, z'
  16  '-y, -x, z'
loop_
 _atom_site_type_symbol
 _atom_site_label
 _atom_site_symmetry_multiplicity
 _atom_site_fract_x
 _atom_site_fract_y
 _atom_site_fract_z
 _atom_site_occupancy
  Cu  Cu0  2  0.25000000  0.25000000  0.50000000  1.0
  B  B1  2  0.25000000  0.75000000  0.00000000  1.0
  H  H2  16  0.01150000  0.15640000  0.24690000  1.0
  H  H3  2  0.25000000  0.25000000  0.00000000  1.0
  C  C4  16  0.00840000  0.09300000  0.35220000  1.0
  I+  I5  4  0.25000000  0.25000000  0.16650000  0.6666666666666666
  Cl+  Cl6  4  0.25000000  0.25000000  0.16650000
  0.16666666666666666
  Br+  Br7  4  0.25000000  0.25000000  0.16650000
  0.16666666666666666
  N  N8  8  0.10120000  0.39880000  0.50000000  1.0
  F  F9  8  0.16600000  0.66600000  0.89440000  1.0
