# generated using pymatgen
data_Zn4Cd1Si4Hg3H8Lv3Te0.5S0.5O16
_symmetry_space_group_name_H-M  'P n n 2'
_cell_length_a   8.10340000
_cell_length_b   10.55610000
_cell_length_c   5.03240000
_cell_angle_alpha   90.00000000
_cell_angle_beta   90.00000000
_cell_angle_gamma   90.00000000
_symmetry_Int_Tables_number   34
_chemical_formula_structural   Zn4Cd1Si4Hg3H8Lv3Te0.5S0.5O16
_chemical_formula_sum   'Zn4 Cd1 Si4 Hg3 H8 Lv3 Te0.5 S0.5 O16'
_cell_volume   430.47300944
_cell_formula_units_Z   1
loop_
 _symmetry_equiv_pos_site_id
 _symmetry_equiv_pos_as_xyz
  1  'x, y, z'
  2  '-x, -y, z'
  3  '-x+1/2, y+1/2, z+1/2'
  4  'x+1/2, -y+1/2, z+1/2'
loop_
 _atom_site_type_symbol
 _atom_site_label
 _atom_site_symmetry_multiplicity
 _atom_site_fract_x
 _atom_site_fract_y
 _atom_site_fract_z
 _atom_site_occupancy
  Zn  Zn0  4  0.24701000  0.14167000  0.00000000  1.0
  Si  Si1  4  0.03365000  0.14317000  0.50540000  1.0
  Cd+  Cd2  4  0.17140000  0.82872000  0.99190000  0.25
  Hg+  Hg3  4  0.17140000  0.82872000  0.99190000  0.75
  H  H4  4  0.04000000  0.57000000  0.08000000  1.0
  H  H5  4  0.13700000  0.45500000  0.63400000  1.0
  Lv+  Lv6  4  0.21020000  0.18150000  0.62530000  0.75
  Te+  Te7  4  0.21020000  0.18150000  0.62530000  0.125
  S+  S8  4  0.21020000  0.18150000  0.62530000  0.125
  O  O9  4  0.03560000  0.15690000  0.18660000  1.0
  O  O10  4  0.11240000  0.77230000  0.63630000  1.0
  O  O11  4  0.18230000  0.46900000  0.53440000  1.0
  O  O12  2  0.00000000  0.00000000  0.60590000  1.0
  O  O13  2  0.00000000  0.50000000  0.99900000  1.0
