# generated using pymatgen
data_Yb2.5Pr1Nd0.5Eu8Te1Lv3S8
_symmetry_space_group_name_H-M  'F m 2 m'
_cell_length_a   5.76200000
_cell_length_b   5.78370000
_cell_length_c   29.63700000
_cell_angle_alpha   90.00000000
_cell_angle_beta   90.00000000
_cell_angle_gamma   90.00000000
_symmetry_Int_Tables_number   42
_chemical_formula_structural   Yb2.5Pr1Nd0.5Eu8Te1Lv3S8
_chemical_formula_sum   'Yb2.5 Pr1 Nd0.5 Eu8 Te1 Lv3 S8'
_cell_volume   987.67316038
_cell_formula_units_Z   1
loop_
 _symmetry_equiv_pos_site_id
 _symmetry_equiv_pos_as_xyz
  1  'x, y, z'
  2  '-x, y, -z'
  3  '-x, y, z'
  4  'x, y, -z'
  5  'x+1/2, y, z+1/2'
  6  '-x+1/2, y, -z+1/2'
  7  '-x+1/2, y, z+1/2'
  8  'x+1/2, y, -z+1/2'
  9  'x+1/2, y+1/2, z'
  10  '-x+1/2, y+1/2, -z'
  11  '-x+1/2, y+1/2, z'
  12  'x+1/2, y+1/2, -z'
  13  'x, y+1/2, z+1/2'
  14  '-x, y+1/2, -z+1/2'
  15  '-x, y+1/2, z+1/2'
  16  'x, y+1/2, -z+1/2'
loop_
 _atom_site_type_symbol
 _atom_site_label
 _atom_site_symmetry_multiplicity
 _atom_site_fract_x
 _atom_site_fract_y
 _atom_site_fract_z
 _atom_site_occupancy
  Nd+  Nd0  4  0.00000000  0.00000000  0.00000000  0.125
  Yb+  Yb1  4  0.00000000  0.00000000  0.00000000  0.625
  Pr+  Pr2  4  0.00000000  0.00000000  0.00000000  0.25
  Eu  Eu3  8  0.00000000  0.49800000  0.11209000  1.0
  Te+  Te4  4  0.00000000  0.49500000  0.00000000  0.25
  Lv+  Lv5  4  0.00000000  0.49500000  0.00000000  0.75
  S  S6  8  0.00000000  0.49910000  0.40959000  1.0
