# generated using pymatgen
data_V8SnGe4H32Pb3(C7O5)8
_symmetry_space_group_name_H-M  'I 41 2 2'
_cell_length_a   15.12150000
_cell_length_b   15.12150000
_cell_length_c   12.06830000
_cell_angle_alpha   90.00000000
_cell_angle_beta   90.00000000
_cell_angle_gamma   90.00000000
_symmetry_Int_Tables_number   98
_chemical_formula_structural   V8SnGe4H32Pb3(C7O5)8
_chemical_formula_sum   'V8 Sn1 Ge4 H32 Pb3 C56 O40'
_cell_volume   2759.53460876
_cell_formula_units_Z   1
loop_
 _symmetry_equiv_pos_site_id
 _symmetry_equiv_pos_as_xyz
  1  'x, y, z'
  2  '-y+1/2, x, z+3/4'
  3  '-x, -y, z'
  4  'y+1/2, -x, z+3/4'
  5  'x+1/2, -y, -z+3/4'
  6  '-y, -x, -z'
  7  '-x+1/2, y, -z+3/4'
  8  'y, x, -z'
  9  'x+1/2, y+1/2, z+1/2'
  10  '-y, x+1/2, z+1/4'
  11  '-x+1/2, -y+1/2, z+1/2'
  12  'y, -x+1/2, z+1/4'
  13  'x, -y+1/2, -z+1/4'
  14  '-y+1/2, -x+1/2, -z+1/2'
  15  '-x, y+1/2, -z+1/4'
  16  'y+1/2, x+1/2, -z+1/2'
loop_
 _atom_site_type_symbol
 _atom_site_label
 _atom_site_symmetry_multiplicity
 _atom_site_fract_x
 _atom_site_fract_y
 _atom_site_fract_z
 _atom_site_occupancy
  V  V0  8  0.18300000  0.68300000  0.25000000  1.0
  Pb+  Pb1  8  0.00000000  0.00000000  0.43595000  0.375
  Sn+  Sn2  8  0.00000000  0.00000000  0.43595000  0.125
  Ge+  Ge3  8  0.00000000  0.00000000  0.43595000  0.5
  H  H4  16  0.07140000  0.62030000  0.82830000  1.0
  H  H5  8  0.00000000  0.00000000  0.11800000  1.0
  H  H6  8  0.18480000  0.75000000  0.62500000  1.0
  C  C7  16  0.04075000  0.56864000  0.87179000  1.0
  C  C8  16  0.04075000  0.56864000  0.98730000  1.0
  C  C9  16  0.08860000  0.63660000  0.04720000  1.0
  C  C10  8  0.00000000  0.00000000  0.20500000  1.0
  O  O11  16  0.10540000  0.70860000  0.00130000  1.0
  O  O12  16  0.11290000  0.62280000  0.14460000  1.0
  O  O13  8  0.24920000  0.75000000  0.62500000  1.0
