# generated using pymatgen
data_La6Cu2Ge2Se13Lv0.5Po0.5
_symmetry_space_group_name_H-M  'P 63'
_cell_length_a   10.72500000
_cell_length_b   10.72500000
_cell_length_c   6.13300000
_cell_angle_alpha   90.00000000
_cell_angle_beta   90.00000000
_cell_angle_gamma   120.00000000
_symmetry_Int_Tables_number   173
_chemical_formula_structural   La6Cu2Ge2Se13Lv0.5Po0.5
_chemical_formula_sum   'La6 Cu2 Ge2 Se13 Lv0.5 Po0.5'
_cell_volume   610.93949009
_cell_formula_units_Z   1
loop_
 _symmetry_equiv_pos_site_id
 _symmetry_equiv_pos_as_xyz
  1  'x, y, z'
  2  'x-y, x, z+1/2'
  3  '-y, x-y, z'
  4  '-x, -y, z+1/2'
  5  '-x+y, -x, z'
  6  'y, -x+y, z+1/2'
loop_
 _atom_type_symbol
 _atom_type_oxidation_number
  La0+  0.0
  Cu0+  0.0
  Po0+  0.0
  Ge0+  0.0
  Se0+  0.0
  Lv0+  0.0
loop_
 _atom_site_type_symbol
 _atom_site_label
 _atom_site_symmetry_multiplicity
 _atom_site_fract_x
 _atom_site_fract_y
 _atom_site_fract_z
 _atom_site_occupancy
  La0+  La0  6  0.12960000  0.77330000  0.85300000  1.0
  Cu0+  Cu1  2  0.00000000  0.00000000  0.32220000  1.0
  Ge0+  Ge2  2  0.33333333  0.66666667  0.43790000  1.0
  Se0+  Se3  6  0.09250000  0.83820000  0.33720000  1.0
  Se0+  Se4  6  0.10140000  0.52070000  0.58840000  1.0
  Lv0+  Lv5  2  0.33333333  0.66666667  0.05900000  0.25
  Se0+  Se6  2  0.33333333  0.66666667  0.05900000  0.5
  Po0+  Po7  2  0.33333333  0.66666667  0.05900000  0.25
