# generated using pymatgen
data_Cs2RbNa2Li3Re2SnB2H30Pb2C48Fl3(N3O)6
_symmetry_space_group_name_H-M  'P 63'
_cell_length_a   14.46800000
_cell_length_b   14.46800000
_cell_length_c   8.07510000
_cell_angle_alpha   90.00000000
_cell_angle_beta   90.00000000
_cell_angle_gamma   120.00000000
_symmetry_Int_Tables_number   173
_chemical_formula_structural   Cs2RbNa2Li3Re2SnB2H30Pb2C48Fl3(N3O)6
_chemical_formula_sum
'Cs2.0 Rb1 Na2 Li3 Re2 Sn1.0 B2 H30 Pb2.0 C48 Fl3 N18 O6'
_cell_volume   1463.84650818
_cell_formula_units_Z   1
loop_
 _symmetry_equiv_pos_site_id
 _symmetry_equiv_pos_as_xyz
  1  'x, y, z'
  2  'x-y, x, z+1/2'
  3  '-y, x-y, z'
  4  '-x, -y, z+1/2'
  5  '-x+y, -x, z'
  6  'y, -x+y, z+1/2'
loop_
 _atom_site_type_symbol
 _atom_site_label
 _atom_site_symmetry_multiplicity
 _atom_site_fract_x
 _atom_site_fract_y
 _atom_site_fract_z
 _atom_site_occupancy
  Rb+  Rb0  2  0.33333333  0.66666667  0.13870000  0.5
  Na+  Na1  2  0.33333333  0.66666667  0.13870000  0.5
  Cs+  Cs2  6  0.01450000  0.46180000  0.16580000
  0.3333333333333333
  Li+  Li3  6  0.01450000  0.46180000  0.16580000  0.5
  Na+  Na4  6  0.01450000  0.46180000  0.16580000
  0.16666666666666666
  Re  Re5  2  0.33333333  0.66666667  0.64520000  1.0
  B  B6  2  0.33333333  0.66666667  0.26200000  1.0
  H  H7  6  0.04060000  0.70980000  0.30600000  1.0
  H  H8  6  0.08570000  0.44970000  0.42260000  1.0
  H  H9  6  0.10030000  0.85340000  0.93140000  1.0
  H  H10  6  0.14820000  0.32540000  0.68570000  1.0
  H  H11  6  0.16210000  0.69270000  0.10200000  1.0
  C  C12  6  0.01210000  0.60550000  0.71900000  1.0
  C  C13  6  0.03100000  0.38600000  0.37400000  1.0
  C  C14  6  0.07600000  0.78690000  0.87700000  1.0
  C  C15  6  0.09170000  0.69550000  0.64900000  1.0
  C  C16  6  0.09960000  0.70030000  0.32970000  1.0
  C  C17  6  0.12200000  0.78610000  0.73100000  1.0
  C  C18  6  0.13700000  0.69200000  0.48330000  1.0
  C  C19  6  0.16680000  0.69160000  0.21930000  1.0
  Pb+  Pb20  6  0.21940000  0.56510000  0.79500000
  0.3333333333333333
  Sn+  Sn21  6  0.21940000  0.56510000  0.79500000
  0.16666666666666666
  Fl+  Fl22  6  0.21940000  0.56510000  0.79500000  0.5
  N  N23  6  0.00280000  0.30260000  0.44840000  1.0
  N  N24  6  0.22140000  0.68180000  0.47100000  1.0
  N  N25  6  0.23980000  0.68130000  0.30460000  1.0
  O  O26  6  0.15550000  0.51230000  0.88040000  1.0
