# generated using pymatgen
data_Ba8Na2Fl2SnPbC2S20IF
_symmetry_space_group_name_H-M  'P 63'
_cell_length_a   9.76530000
_cell_length_b   9.76530000
_cell_length_c   12.05810000
_cell_angle_alpha   90.00000000
_cell_angle_beta   90.00000000
_cell_angle_gamma   120.00000000
_symmetry_Int_Tables_number   173
_chemical_formula_structural   Ba8Na2Fl2SnPbC2S20IF
_chemical_formula_sum   'Ba8 Na2 Fl2.0 Sn1.0 Pb1.0 C2.0 S20 I1 F1'
_cell_volume   995.81965180
_cell_formula_units_Z   1
loop_
 _symmetry_equiv_pos_site_id
 _symmetry_equiv_pos_as_xyz
  1  'x, y, z'
  2  'x-y, x, z+1/2'
  3  '-y, x-y, z'
  4  '-x, -y, z+1/2'
  5  '-x+y, -x, z'
  6  'y, -x+y, z+1/2'
loop_
 _atom_site_type_symbol
 _atom_site_label
 _atom_site_symmetry_multiplicity
 _atom_site_fract_x
 _atom_site_fract_y
 _atom_site_fract_z
 _atom_site_occupancy
  Ba  Ba0  6  0.08300000  0.74362000  0.50631000  1.0
  Ba  Ba1  2  0.33333333  0.66666667  0.18794000  1.0
  Na  Na2  2  0.00000000  0.00000000  0.25050000  1.0
  Fl+  Fl3  6  0.11848000  0.67179000  0.84107000
  0.3333333333333333
  Pb+  Pb4  6  0.11848000  0.67179000  0.84107000
  0.16666666666666666
  C+  C5  6  0.11848000  0.67179000  0.84107000  0.3333333333333333
  Sn+  Sn6  6  0.11848000  0.67179000  0.84107000
  0.16666666666666666
  S  S7  6  0.06710000  0.31640000  0.25000000  1.0
  S  S8  6  0.08810000  0.66500000  0.01790000  1.0
  S  S9  6  0.11430000  0.45230000  0.77560000  1.0
  S  S10  2  0.33333333  0.66666667  0.44370000  1.0
  I+  I11  2  0.00000000  0.00000000  0.49960000  0.5
  F+  F12  2  0.00000000  0.00000000  0.49960000  0.5
