# generated using pymatgen
data_Gd6B1Nh0.33333333In0.33333333Ga0.33333333Os1.66666667Ru0.33333333S14
_symmetry_space_group_name_H-M  'P 63'
_cell_length_a   9.69330000
_cell_length_b   9.69330000
_cell_length_c   6.12810000
_cell_angle_alpha   90.00000000
_cell_angle_beta   90.00000000
_cell_angle_gamma   120.00000000
_symmetry_Int_Tables_number   173
_chemical_formula_structural
Gd6B1Nh0.33333333In0.33333333Ga0.33333333Os1.66666667Ru0.33333333S14
_chemical_formula_sum
;
Gd6 B1 Nh0.33333333 In0.33333333 Ga0.33333333 Os1.66666667
Ru0.33333333 S14
;
_cell_volume   498.65454680
_cell_formula_units_Z   1
loop_
 _symmetry_equiv_pos_site_id
 _symmetry_equiv_pos_as_xyz
  1  'x, y, z'
  2  'x-y, x, z+1/2'
  3  '-y, x-y, z'
  4  '-x, -y, z+1/2'
  5  '-x+y, -x, z'
  6  'y, -x+y, z+1/2'
loop_
 _atom_site_type_symbol
 _atom_site_label
 _atom_site_symmetry_multiplicity
 _atom_site_fract_x
 _atom_site_fract_y
 _atom_site_fract_z
 _atom_site_occupancy
  Gd  Gd0  6  0.15421000  0.37727000  0.68066000  1.0
  B+  B1  2  0.33333333  0.66666667  0.10490000  0.5
  Nh+  Nh2  2  0.33333333  0.66666667  0.10490000
  0.16666666666666666
  In+  In3  2  0.33333333  0.66666667  0.10490000
  0.16666666666666666
  Ga+  Ga4  2  0.33333333  0.66666667  0.10490000
  0.16666666666666666
  Os+  Os5  2  0.00000000  0.00000000  0.49690000
  0.8333333333333334
  Ru+  Ru6  2  0.00000000  0.00000000  0.49690000
  0.16666666666666666
  S  S7  6  0.08900000  0.56800000  0.95070000  1.0
  S  S8  6  0.10230000  0.23970000  0.25610000  1.0
  S  S9  2  0.33333333  0.66666667  0.47120000  1.0
