# generated using pymatgen
data_Li2Br0.66666667Cl1.33333333O6
_symmetry_space_group_name_H-M  'P 63'
_cell_length_a   5.47800000
_cell_length_b   5.47800000
_cell_length_c   5.17000000
_cell_angle_alpha   90.00000000
_cell_angle_beta   90.00000000
_cell_angle_gamma   120.00000000
_symmetry_Int_Tables_number   173
_chemical_formula_structural   Li2Br0.66666667Cl1.33333333O6
_chemical_formula_sum   'Li2 Br0.66666667 Cl1.33333333 O6'
_cell_volume   134.35852598
_cell_formula_units_Z   1
loop_
 _symmetry_equiv_pos_site_id
 _symmetry_equiv_pos_as_xyz
  1  'x, y, z'
  2  'x-y, x, z+1/2'
  3  '-y, x-y, z'
  4  '-x, -y, z+1/2'
  5  '-x+y, -x, z'
  6  'y, -x+y, z+1/2'
loop_
 _atom_type_symbol
 _atom_type_oxidation_number
  Li0+  0.0
  Br0+  0.0
  Cl0+  0.0
  O0+  0.0
loop_
 _atom_site_type_symbol
 _atom_site_label
 _atom_site_symmetry_multiplicity
 _atom_site_fract_x
 _atom_site_fract_y
 _atom_site_fract_z
 _atom_site_occupancy
  Li0+  Li0  2  0.00000000  0.00000000  0.16100000  1.0
  Br0+  Br1  2  0.33333333  0.66666667  0.25000000
  0.3333333333333333
  Cl0+  Cl2  2  0.33333333  0.66666667  0.25000000
  0.6666666666666666
  O0+  O3  6  0.09400000  0.75150000  0.41520000  1.0
