# generated using pymatgen
data_K0.5Na0.75Li0.75Mn6H40C18N6O36
_symmetry_space_group_name_H-M  'P 63'
_cell_length_a   12.65088000
_cell_length_b   12.65088000
_cell_length_c   8.54951000
_cell_angle_alpha   90.00000000
_cell_angle_beta   90.00000000
_cell_angle_gamma   120.00000000
_symmetry_Int_Tables_number   173
_chemical_formula_structural   K0.5Na0.75Li0.75Mn6H40C18N6O36
_chemical_formula_sum   'K0.5 Na0.75 Li0.75 Mn6 H40 C18 N6 O36'
_cell_volume   1184.98629853
_cell_formula_units_Z   1
loop_
 _symmetry_equiv_pos_site_id
 _symmetry_equiv_pos_as_xyz
  1  'x, y, z'
  2  'x-y, x, z+1/2'
  3  '-y, x-y, z'
  4  '-x, -y, z+1/2'
  5  '-x+y, -x, z'
  6  'y, -x+y, z+1/2'
loop_
 _atom_site_type_symbol
 _atom_site_label
 _atom_site_symmetry_multiplicity
 _atom_site_fract_x
 _atom_site_fract_y
 _atom_site_fract_z
 _atom_site_occupancy
  Li+  Li0  2  0.33333333  0.66666667  0.47400000  0.375
  Na+  Na1  2  0.33333333  0.66666667  0.47400000  0.375
  K+  K2  2  0.33333333  0.66666667  0.47400000  0.25
  Mn  Mn3  6  0.00545000  0.66943000  0.91885000  1.0
  H  H4  6  0.03520000  0.95850000  0.01280000  1.0
  H  H5  6  0.03660000  0.53820000  0.63400000  1.0
  H  H6  6  0.13290000  0.83670000  0.63700000  1.0
  H  H7  6  0.15960000  0.79280000  0.22000000  1.0
  H  H8  6  0.26400000  0.65980000  0.32890000  1.0
  H  H9  6  0.29100000  0.70100000  0.83580000  1.0
  H  H10  2  0.00000000  0.00000000  0.37200000  1.0
  H  H11  2  0.33333333  0.66666667  0.97400000  1.0
  C  C12  6  0.04750000  0.51526000  0.15350000  1.0
  C  C13  6  0.13470000  0.84836000  0.19400000  1.0
  C  C14  6  0.18750000  0.80790000  0.65560000  1.0
  N  N15  2  0.00000000  0.00000000  0.47620000  1.0
  N  N16  2  0.33333333  0.66666667  0.36690000  1.0
  N  N17  2  0.33333333  0.66666667  0.86990000  1.0
  O  O18  6  0.05983000  0.22906000  0.28120000  1.0
  O  O19  6  0.07037000  0.82729000  0.07350000  1.0
  O  O20  6  0.09275000  0.49091000  0.26890000  1.0
  O  O21  6  0.10189000  0.60161000  0.06140000  1.0
  O  O22  6  0.15938000  0.43324000  0.56250000  1.0
  O  O23  6  0.16549000  0.73754000  0.77060000  1.0
