# generated using pymatgen
data_Pb2Fl0.27777778Sn0.72222222I6
_symmetry_space_group_name_H-M  'P 3 m 1'
_cell_length_a   4.55700000
_cell_length_b   4.55700000
_cell_length_c   20.93700000
_cell_angle_alpha   90.00000000
_cell_angle_beta   90.00000000
_cell_angle_gamma   120.00000000
_symmetry_Int_Tables_number   156
_chemical_formula_structural   Pb2Fl0.27777778Sn0.72222222I6
_chemical_formula_sum   'Pb2 Fl0.27777778 Sn0.72222222 I6'
_cell_volume   376.53308443
_cell_formula_units_Z   1
loop_
 _symmetry_equiv_pos_site_id
 _symmetry_equiv_pos_as_xyz
  1  'x, y, z'
  2  '-y, x-y, z'
  3  '-x+y, -x, z'
  4  '-y, -x, z'
  5  '-x+y, y, z'
  6  'x, x-y, z'
loop_
 _atom_site_type_symbol
 _atom_site_label
 _atom_site_symmetry_multiplicity
 _atom_site_fract_x
 _atom_site_fract_y
 _atom_site_fract_z
 _atom_site_occupancy
  Pb  Pb0  1  0.00000000  0.00000000  0.00000000  1
  Pb  Pb1  1  0.00000000  0.00000000  0.33333333  1
  Fl+  Fl2  1  0.66666667  0.33333333  0.66666667
  0.2777777777777778
  Sn+  Sn3  1  0.66666667  0.33333333  0.66666667
  0.7222222222222222
  I  I4  1  0.00000000  0.00000000  0.57900000  1
  I  I5  1  0.33333333  0.66666667  0.08800000  1
  I  I6  1  0.33333333  0.66666667  0.42100000  1
  I  I7  1  0.33333333  0.66666667  0.75500000  1
  I  I8  1  0.66666667  0.33333333  0.24500000  1
  I  I9  1  0.66666667  0.33333333  0.91200000  1
