# generated using pymatgen
data_Fr0.5Cs0.16666667K0.16666667Sr1Ga1Sn1H0.16666667
_symmetry_space_group_name_H-M  'P 3 m 1'
_cell_length_a   4.48290000
_cell_length_b   4.48290000
_cell_length_c   5.19120000
_cell_angle_alpha   90.00000000
_cell_angle_beta   90.00000000
_cell_angle_gamma   120.00000000
_symmetry_Int_Tables_number   156
_chemical_formula_structural
Fr0.5Cs0.16666667K0.16666667Sr1Ga1Sn1H0.16666667
_chemical_formula_sum
'Fr0.5 Cs0.16666667 K0.16666667 Sr1 Ga1 Sn1 H0.16666667'
_cell_volume   90.34757395
_cell_formula_units_Z   1
loop_
 _symmetry_equiv_pos_site_id
 _symmetry_equiv_pos_as_xyz
  1  'x, y, z'
  2  '-y, x-y, z'
  3  '-x+y, -x, z'
  4  '-y, -x, z'
  5  '-x+y, y, z'
  6  'x, x-y, z'
loop_
 _atom_site_type_symbol
 _atom_site_label
 _atom_site_symmetry_multiplicity
 _atom_site_fract_x
 _atom_site_fract_y
 _atom_site_fract_z
 _atom_site_occupancy
  Sr  Sr0  1  0.00000000  0.00000000  0.00000000  1.0
  H+  H1  1  0.66666667  0.33333333  0.93660000  0.16666666666666666
  Fr+  Fr2  1  0.66666667  0.33333333  0.93660000  0.5
  Cs+  Cs3  1  0.66666667  0.33333333  0.93660000
  0.16666666666666666
  K+  K4  1  0.66666667  0.33333333  0.93660000  0.16666666666666666
  Ga  Ga5  1  0.66666667  0.33333333  0.60060000  1.0
  Sn  Sn6  1  0.33333333  0.66666667  0.45210000  1.0
