# generated using pymatgen
data_Cd6.16666667Hg0.66666667Cn0.08333333Zn0.08333333I14
_symmetry_space_group_name_H-M  'P 3 m 1'
_cell_length_a   4.24000000
_cell_length_b   4.24000000
_cell_length_c   47.84000000
_cell_angle_alpha   90.00000000
_cell_angle_beta   90.00000000
_cell_angle_gamma   120.00000000
_symmetry_Int_Tables_number   156
_chemical_formula_structural
Cd6.16666667Hg0.66666667Cn0.08333333Zn0.08333333I14
_chemical_formula_sum
'Cd6.16666667 Hg0.66666667 Cn0.08333333 Zn0.08333333 I14'
_cell_volume   744.82374903
_cell_formula_units_Z   1
loop_
 _symmetry_equiv_pos_site_id
 _symmetry_equiv_pos_as_xyz
  1  'x, y, z'
  2  '-y, x-y, z'
  3  '-x+y, -x, z'
  4  '-y, -x, z'
  5  '-x+y, y, z'
  6  'x, x-y, z'
loop_
 _atom_type_symbol
 _atom_type_oxidation_number
  Zn0+  0.0
  Cd0+  0.0
  Hg0+  0.0
  I0+  0.0
  Cn0+  0.0
loop_
 _atom_site_type_symbol
 _atom_site_label
 _atom_site_symmetry_multiplicity
 _atom_site_fract_x
 _atom_site_fract_y
 _atom_site_fract_z
 _atom_site_occupancy
  Cd0+  Cd0  1  0.00000000  0.00000000  0.17860000  1.0
  Cd0+  Cd1  1  0.00000000  0.00000000  0.60710000  1.0
  Cd0+  Cd2  1  0.00000000  0.00000000  0.75000000  1.0
  Cd0+  Cd3  1  0.33333333  0.66666667  0.03570000  1.0
  Cd0+  Cd4  1  0.33333333  0.66666667  0.32140000  1.0
  Hg0+  Hg5  1  0.33333333  0.66666667  0.46430000
  0.6666666666666666
  Cd0+  Cd6  1  0.33333333  0.66666667  0.46430000
  0.16666666666666666
  Cn0+  Cn7  1  0.33333333  0.66666667  0.46430000
  0.08333333333333333
  Zn0+  Zn8  1  0.33333333  0.66666667  0.46430000
  0.08333333333333333
  Cd0+  Cd9  1  0.33333333  0.66666667  0.89290000  1.0
  I0+  I10  1  0.00000000  0.00000000  0.00000000  1.0
  I0+  I11  1  0.00000000  0.00000000  0.28570000  1.0
  I0+  I12  1  0.00000000  0.00000000  0.42860000  1.0
  I0+  I13  1  0.00000000  0.00000000  0.85710000  1.0
  I0+  I14  1  0.33333333  0.66666667  0.14290000  1.0
  I0+  I15  1  0.33333333  0.66666667  0.57140000  1.0
  I0+  I16  1  0.33333333  0.66666667  0.71430000  1.0
  I0+  I17  1  0.66666667  0.33333333  0.07140000  1.0
  I0+  I18  1  0.66666667  0.33333333  0.21430000  1.0
  I0+  I19  1  0.66666667  0.33333333  0.35710000  1.0
  I0+  I20  1  0.66666667  0.33333333  0.50000000  1.0
  I0+  I21  1  0.66666667  0.33333333  0.64290000  1.0
  I0+  I22  1  0.66666667  0.33333333  0.78570000  1.0
  I0+  I23  1  0.66666667  0.33333333  0.92860000  1.0
