# generated using pymatgen
data_Na5.5Li2.5Fe4B8H88C64N24
_symmetry_space_group_name_H-M  'A e a 2'
_cell_length_a   14.35530000
_cell_length_b   15.23890000
_cell_length_c   8.85430000
_cell_angle_alpha   90.00000000
_cell_angle_beta   90.00000000
_cell_angle_gamma   90.00000000
_symmetry_Int_Tables_number   41
_chemical_formula_structural   Na5.5Li2.5Fe4B8H88C64N24
_chemical_formula_sum   'Na5.5 Li2.5 Fe4 B8 H88 C64 N24'
_cell_volume   1936.95764697
_cell_formula_units_Z   1
loop_
 _symmetry_equiv_pos_site_id
 _symmetry_equiv_pos_as_xyz
  1  'x, y, z'
  2  '-x, -y, z'
  3  '-x+1/2, y+1/2, z'
  4  'x+1/2, -y+1/2, z'
  5  'x, y+1/2, z+1/2'
  6  '-x, -y+1/2, z+1/2'
  7  '-x+1/2, y, z+1/2'
  8  'x+1/2, -y, z+1/2'
loop_
 _atom_site_type_symbol
 _atom_site_label
 _atom_site_symmetry_multiplicity
 _atom_site_fract_x
 _atom_site_fract_y
 _atom_site_fract_z
 _atom_site_occupancy
  Na+  Na0  8  0.12350000  0.19030000  0.81230000  0.6875
  Li+  Li1  8  0.12350000  0.19030000  0.81230000  0.3125
  Fe  Fe2  4  0.00000000  0.00000000  0.23891000  1.0
  B  B3  8  0.07560000  0.21300000  0.88070000  1.0
  H  H4  8  0.01000000  0.13220000  0.39900000  1.0
  H  H5  8  0.02010000  0.22900000  0.82250000  1.0
  H  H6  8  0.03370000  0.07260000  0.63430000  1.0
  H  H7  8  0.06810000  0.43210000  0.06010000  1.0
  H  H8  8  0.09940000  0.26480000  0.93340000  1.0
  H  H9  8  0.12100000  0.40530000  0.33330000  1.0
  H  H10  8  0.13190000  0.35150000  0.63930000  1.0
  H  H11  8  0.15380000  0.14610000  0.33750000  1.0
  H  H12  8  0.16040000  0.10830000  0.50600000  1.0
  H  H13  8  0.18710000  0.03170000  0.93790000  1.0
  H  H14  8  0.21320000  0.31400000  0.17980000  1.0
  C  C15  8  0.00250000  0.45110000  0.04830000  1.0
  C  C16  8  0.04930000  0.13990000  0.00010000  1.0
  C  C17  8  0.13790000  0.09550000  0.40260000  1.0
  C  C18  8  0.16970000  0.38900000  0.69930000  1.0
  C  C19  8  0.18420000  0.41960000  0.31380000  1.0
  C  C20  8  0.18550000  0.01450000  0.34370000  1.0
  C  C21  8  0.22320000  0.49440000  0.37480000  1.0
  C  C22  8  0.23840000  0.36570000  0.22370000  1.0
  N  N23  8  0.03110000  0.08680000  0.08710000  1.0
  N  N24  8  0.03540000  0.08330000  0.40500000  1.0
  N  N25  8  0.13132000  0.46223000  0.75660000  1.0
