# generated using pymatgen
data_Cd24H64C112S48N74Mc6Lv5Po3O8
_symmetry_space_group_name_H-M  'F d d 2'
_cell_length_a   15.79210000
_cell_length_b   20.87960000
_cell_length_c   15.66690000
_cell_angle_alpha   90.00000000
_cell_angle_beta   90.00000000
_cell_angle_gamma   90.00000000
_symmetry_Int_Tables_number   43
_chemical_formula_structural   Cd24H64C112S48N74Mc6Lv5Po3O8
_chemical_formula_sum   'Cd24 H64 C112 S48 N74 Mc6 Lv5 Po3 O8'
_cell_volume   5165.88972581
_cell_formula_units_Z   1
loop_
 _symmetry_equiv_pos_site_id
 _symmetry_equiv_pos_as_xyz
  1  'x, y, z'
  2  '-x, -y, z'
  3  '-x+3/4, y+1/4, z+3/4'
  4  'x+3/4, -y+1/4, z+3/4'
  5  'x, y+1/2, z+1/2'
  6  '-x, -y+1/2, z+1/2'
  7  '-x+3/4, y+3/4, z+1/4'
  8  'x+3/4, -y+3/4, z+1/4'
  9  'x+1/2, y, z+1/2'
  10  '-x+1/2, -y, z+1/2'
  11  '-x+1/4, y+1/4, z+1/4'
  12  'x+1/4, -y+1/4, z+1/4'
  13  'x+1/2, y+1/2, z'
  14  '-x+1/2, -y+1/2, z'
  15  '-x+1/4, y+3/4, z+3/4'
  16  'x+1/4, -y+3/4, z+3/4'
loop_
 _atom_site_type_symbol
 _atom_site_label
 _atom_site_symmetry_multiplicity
 _atom_site_fract_x
 _atom_site_fract_y
 _atom_site_fract_z
 _atom_site_occupancy
  Cd  Cd0  16  0.10446800  0.05358700  0.77601300  1.0
  Cd  Cd1  8  0.00000000  0.00000000  0.27311000  1.0
  H  H2  16  0.10560000  0.45270000  0.60460000  1.0
  H  H3  16  0.10650000  0.45110000  0.45760000  1.0
  H  H4  16  0.12110000  0.48160000  0.94260000  1.0
  H  H5  16  0.12150000  0.47810000  0.08830000  1.0
  C  C6  16  0.03838000  0.27529000  0.52510000  1.0
  C  C7  16  0.04320000  0.34393000  0.20560000  1.0
  C  C8  16  0.05360000  0.35579000  0.84700000  1.0
  C  C9  16  0.06150000  0.47230000  0.57500000  1.0
  C  C10  16  0.06280000  0.47130000  0.48680000  1.0
  C  C11  16  0.07070000  0.48878000  0.97170000  1.0
  C  C12  16  0.07180000  0.48752000  0.05910000  1.0
  S  S13  16  0.00635000  0.34940000  0.30284000  1.0
  S  S14  16  0.00845000  0.37007000  0.75402000  1.0
  S  S15  16  0.05807000  0.19403000  0.02506000  1.0
  N  N16  16  0.08510000  0.34497000  0.91010000  1.0
  N  N17  16  0.10621000  0.25616000  0.52500000  1.0
  N  N18  8  0.00000000  0.00000000  0.60250000  1.0
  Mc+  Mc19  8  0.00000000  0.00000000  0.42620000  0.75
  N+  N20  8  0.00000000  0.00000000  0.42620000  0.25
  N  N21  16  0.06990000  0.33868000  0.13700000  1.0
  N  N22  8  0.00000000  0.00000000  0.11900000  1.0
  N  N23  8  0.00000000  0.00000000  0.94430000  1.0
  Lv+  Lv24  8  0.00000000  0.00000000  0.68676000  0.625
  Po+  Po25  8  0.00000000  0.00000000  0.68676000  0.375
  O  O26  8  0.00000000  0.00000000  0.86009000  1.0
