# generated using pymatgen
data_Sr0.66666667Ca6Mg0.33333333Ni4Sn13
_symmetry_space_group_name_H-M  'P 4/m'
_cell_length_a   11.20000000
_cell_length_b   11.20000000
_cell_length_c   4.59400000
_cell_angle_alpha   90.00000000
_cell_angle_beta   90.00000000
_cell_angle_gamma   90.00000000
_symmetry_Int_Tables_number   83
_chemical_formula_structural   Sr0.66666667Ca6Mg0.33333333Ni4Sn13
_chemical_formula_sum   'Sr0.66666667 Ca6 Mg0.33333333 Ni4 Sn13'
_cell_volume   576.27136000
_cell_formula_units_Z   1
loop_
 _symmetry_equiv_pos_site_id
 _symmetry_equiv_pos_as_xyz
  1  'x, y, z'
  2  '-x, -y, -z'
  3  '-y, x, z'
  4  'y, -x, -z'
  5  '-x, -y, z'
  6  'x, y, -z'
  7  'y, -x, z'
  8  '-y, x, -z'
loop_
 _atom_site_type_symbol
 _atom_site_label
 _atom_site_symmetry_multiplicity
 _atom_site_fract_x
 _atom_site_fract_y
 _atom_site_fract_z
 _atom_site_occupancy
  Ca  Ca0  2  0.00000000  0.50000000  0.00000000  1.0
  Ca  Ca1  1  0.50000000  0.50000000  0.50000000  1.0
  Ca+  Ca2  4  0.16284000  0.17058000  0.00000000  0.75
  Mg+  Mg3  4  0.16284000  0.17058000  0.00000000
  0.08333333333333333
  Sr+  Sr4  4  0.16284000  0.17058000  0.00000000
  0.16666666666666666
  Ni  Ni5  4  0.22410000  0.61932000  0.50000000  1.0
  Sn  Sn6  4  0.01751000  0.71467000  0.50000000  1.0
  Sn  Sn7  4  0.21629000  0.38922000  0.50000000  1.0
  Sn  Sn8  4  0.30952000  0.57522000  0.00000000  1.0
  Sn  Sn9  1  0.00000000  0.00000000  0.50000000  1.0
