# generated using pymatgen
data_Sn2Ge0.5C20Fl1.5N40O32
_symmetry_space_group_name_H-M  'P c a 21'
_cell_length_a   7.88720000
_cell_length_b   11.94640000
_cell_length_c   11.92760000
_cell_angle_alpha   90.00000000
_cell_angle_beta   90.00000000
_cell_angle_gamma   90.00000000
_symmetry_Int_Tables_number   29
_chemical_formula_structural   Sn2Ge0.5C20Fl1.5N40O32
_chemical_formula_sum   'Sn2 Ge0.5 C20 Fl1.5 N40 O32'
_cell_volume   1123.86196098
_cell_formula_units_Z   1
loop_
 _symmetry_equiv_pos_site_id
 _symmetry_equiv_pos_as_xyz
  1  'x, y, z'
  2  '-x, -y, z+1/2'
  3  '-x+1/2, y, z+1/2'
  4  'x+1/2, -y, z'
loop_
 _atom_site_type_symbol
 _atom_site_label
 _atom_site_symmetry_multiplicity
 _atom_site_fract_x
 _atom_site_fract_y
 _atom_site_fract_z
 _atom_site_occupancy
  C  C0  4  0.00350000  0.16210000  0.38690000  1.0
  C  C1  4  0.05230000  0.60900000  0.21750000  1.0
  C  C2  4  0.06200000  0.23850000  0.46340000  1.0
  C  C3  4  0.11180000  0.68780000  0.13940000  1.0
  C  C4  4  0.12880000  0.15710000  0.30410000  1.0
  Ge+  Ge5  4  0.01860000  0.29790000  0.56430000  0.125
  Fl+  Fl6  4  0.01860000  0.29790000  0.56430000  0.375
  Sn+  Sn7  4  0.01860000  0.29790000  0.56430000  0.5
  N  N8  4  0.10200000  0.42670000  0.69440000  1.0
  N  N9  4  0.12560000  0.09270000  0.20020000  1.0
  N  N10  4  0.12580000  0.56780000  0.32320000  1.0
  N  N11  4  0.14190000  0.37000000  0.60140000  1.0
  N  N12  4  0.14770000  0.90720000  0.88670000  1.0
  N  N13  4  0.16530000  0.34230000  0.96640000  1.0
  N  N14  4  0.20210000  0.39240000  0.05530000  1.0
  N  N15  4  0.22020000  0.26940000  0.42100000  1.0
  N  N16  4  0.22390000  0.73710000  0.62790000  1.0
  N  N17  4  0.23960000  0.22210000  0.82390000  1.0
  O  O18  4  0.01850000  0.01980000  0.19380000  1.0
  O  O19  4  0.07580000  0.47680000  0.35410000  1.0
  O  O20  4  0.10530000  0.69420000  0.67890000  1.0
  O  O21  4  0.13860000  0.99550000  0.93590000  1.0
  O  O22  4  0.21120000  0.81870000  0.56650000  1.0
  O  O23  4  0.22350000  0.62870000  0.37230000  1.0
  O  O24  4  0.22550000  0.12010000  0.12810000  1.0
  O  O25  4  0.23230000  0.87560000  0.33180000  1.0
