# generated using pymatgen
data_Fr2Rb16Fe3B6H126C72(N3F)24
_symmetry_space_group_name_H-M  'R -3 :H'
_cell_length_a   10.70230000
_cell_length_b   10.70230000
_cell_length_c   32.09310000
_cell_angle_alpha   90.00000000
_cell_angle_beta   90.00000000
_cell_angle_gamma   120.00000000
_symmetry_Int_Tables_number   148
_chemical_formula_structural   Fr2Rb16Fe3B6H126C72(N3F)24
_chemical_formula_sum   'Fr2 Rb16 Fe3 B6 H126 C72 N72 F24'
_cell_volume   3183.43907271
_cell_formula_units_Z   1
loop_
 _symmetry_equiv_pos_site_id
 _symmetry_equiv_pos_as_xyz
  1  'x, y, z'
  2  '-x, -y, -z'
  3  '-y, x-y, z'
  4  'y, -x+y, -z'
  5  '-x+y, -x, z'
  6  'x-y, x, -z'
  7  'x+2/3, y+1/3, z+1/3'
  8  '-x+2/3, -y+1/3, -z+1/3'
  9  '-y+2/3, x-y+1/3, z+1/3'
  10  'y+2/3, -x+y+1/3, -z+1/3'
  11  '-x+y+2/3, -x+1/3, z+1/3'
  12  'x-y+2/3, x+1/3, -z+1/3'
  13  'x+1/3, y+2/3, z+2/3'
  14  '-x+1/3, -y+2/3, -z+2/3'
  15  '-y+1/3, x-y+2/3, z+2/3'
  16  'y+1/3, -x+y+2/3, -z+2/3'
  17  '-x+y+1/3, -x+2/3, z+2/3'
  18  'x-y+1/3, x+2/3, -z+2/3'
loop_
 _atom_site_type_symbol
 _atom_site_label
 _atom_site_symmetry_multiplicity
 _atom_site_fract_x
 _atom_site_fract_y
 _atom_site_fract_z
 _atom_site_occupancy
  Rb+  Rb0  18  0.02336667  0.21453333  0.16093333
  0.8888888888888888
  Fr+  Fr1  18  0.02336667  0.21453333  0.16093333
  0.1111111111111111
  Fe  Fe2  3  0.00000000  0.00000000  0.00000000  1.0
  B  B3  6  0.00000000  0.00000000  0.31766333  1.0
  H  H4  18  0.00163333  0.43726667  0.64176667  1.0
  H  H5  18  0.00280000  0.44030000  0.13130000  1.0
  H  H6  18  0.01153333  0.86446667  0.79476667  1.0
  H  H7  18  0.01996667  0.59583333  0.47233333  1.0
  H  H8  18  0.05370000  0.51640000  0.93570000  1.0
  H  H9  18  0.05716667  0.83093333  0.47193333  1.0
  H  H10  18  0.10106667  0.21613333  0.40213333  1.0
  C  C11  18  0.00975667  0.22453333  0.19065333  1.0
  C  C12  18  0.01692000  0.53692000  0.12481000  1.0
  C  C13  18  0.01721000  0.26456000  0.96083000  1.0
  C  C14  18  0.03365000  0.56000000  0.07827000  1.0
  N  N15  18  0.01041667  0.50283333  0.25332333  1.0
  N  N16  18  0.01949667  0.38874333  0.26726333  1.0
  N  N17  18  0.04844000  0.87760000  0.03551000  1.0
  N  N18  18  0.06893000  0.23377000  0.06167000  1.0
  F  F19  18  0.04302333  0.13780667  0.66793667  1.0
  F  F20  6  0.00000000  0.00000000  0.27463333  1.0
