# generated using pymatgen
data_Rb6Po17.66666667Te0.33333333Mo3I18O36
_symmetry_space_group_name_H-M  'R -3 :H'
_cell_length_a   11.40480000
_cell_length_b   11.40480000
_cell_length_c   11.40620000
_cell_angle_alpha   90.00000000
_cell_angle_beta   90.00000000
_cell_angle_gamma   120.00000000
_symmetry_Int_Tables_number   148
_chemical_formula_structural   Rb6Po17.66666667Te0.33333333Mo3I18O36
_chemical_formula_sum   'Rb6 Po17.66666667 Te0.33333333 Mo3 I18 O36'
_cell_volume   1284.83382489
_cell_formula_units_Z   1
loop_
 _symmetry_equiv_pos_site_id
 _symmetry_equiv_pos_as_xyz
  1  'x, y, z'
  2  '-x, -y, -z'
  3  '-y, x-y, z'
  4  'y, -x+y, -z'
  5  '-x+y, -x, z'
  6  'x-y, x, -z'
  7  'x+2/3, y+1/3, z+1/3'
  8  '-x+2/3, -y+1/3, -z+1/3'
  9  '-y+2/3, x-y+1/3, z+1/3'
  10  'y+2/3, -x+y+1/3, -z+1/3'
  11  '-x+y+2/3, -x+1/3, z+1/3'
  12  'x-y+2/3, x+1/3, -z+1/3'
  13  'x+1/3, y+2/3, z+2/3'
  14  '-x+1/3, -y+2/3, -z+2/3'
  15  '-y+1/3, x-y+2/3, z+2/3'
  16  'y+1/3, -x+y+2/3, -z+2/3'
  17  '-x+y+1/3, -x+2/3, z+2/3'
  18  'x-y+1/3, x+2/3, -z+2/3'
loop_
 _atom_type_symbol
 _atom_type_oxidation_number
  Rb0+  0.0
  Po0+  0.0
  Te0+  0.0
  Mo0+  0.0
  I0+  0.0
  O0+  0.0
loop_
 _atom_site_type_symbol
 _atom_site_label
 _atom_site_symmetry_multiplicity
 _atom_site_fract_x
 _atom_site_fract_y
 _atom_site_fract_z
 _atom_site_occupancy
  Rb0+  Rb0  6  0.00000000  0.00000000  0.16693000  1.0
  Te0+  Te1  18  0.06440000  0.52350000  0.62230000
  0.018518518518518517
  Po0+  Po2  18  0.06440000  0.52350000  0.62230000
  0.9814814814814815
  Mo0+  Mo3  3  0.00000000  0.00000000  0.50003333  1.0
  I0+  I4  18  0.02081000  0.61334000  0.27547000  1.0
  O0+  O5  18  0.04410000  0.47360000  0.86160000  1.0
  O0+  O6  18  0.06706667  0.91123333  0.60673333  1.0
