# generated using pymatgen
data_K4PoRuN6O6Lv3TeS
_symmetry_space_group_name_H-M  'R -3 :R'
_cell_length_a   8.59500000
_cell_length_b   8.59500000
_cell_length_c   8.59500000
_cell_angle_alpha   52.23000000
_cell_angle_beta   52.23000000
_cell_angle_gamma   52.23000000
_symmetry_Int_Tables_number   148
_chemical_formula_structural   K4PoRuN6O6Lv3TeS
_chemical_formula_sum   'K4 Po1.0 Ru1 N6 O6 Lv3 Te1.0 S1.0'
_cell_volume   367.01229149
_cell_formula_units_Z   1
loop_
 _symmetry_equiv_pos_site_id
 _symmetry_equiv_pos_as_xyz
  1  'x, y, z'
  2  '-x, -y, -z'
  3  'y, z, x'
  4  '-y, -z, -x'
  5  'z, x, y'
  6  '-z, -x, -y'
loop_
 _atom_type_symbol
 _atom_type_oxidation_number
  K0+  0.0
  Po0+  0.0
  Te0+  0.0
  Ru0+  0.0
  S0+  0.0
  N0+  0.0
  O0+  0.0
  Lv0+  0.0
loop_
 _atom_site_type_symbol
 _atom_site_label
 _atom_site_symmetry_multiplicity
 _atom_site_fract_x
 _atom_site_fract_y
 _atom_site_fract_z
 _atom_site_occupancy
  K0+  K0  2  0.19290000  0.19290000  0.19290000  1.0
  K0+  K1  2  0.38060000  0.38060000  0.38060000  1.0
  Ru0+  Ru2  1  0.00000000  0.00000000  0.00000000  1.0
  N0+  N3  6  0.07120000  0.69200000  0.07380000  1.0
  O0+  O4  6  0.06560000  0.86130000  0.36800000  1.0
  Lv0+  Lv5  6  0.04500000  0.55740000  0.25910000  0.5
  Te0+  Te6  6  0.04500000  0.55740000  0.25910000
  0.16666666666666666
  S0+  S7  6  0.04500000  0.55740000  0.25910000
  0.16666666666666666
  Po0+  Po8  6  0.04500000  0.55740000  0.25910000
  0.16666666666666666
