# generated using pymatgen
data_Tl12CrMo37W15SgSe66
_symmetry_space_group_name_H-M  'R -3 :H'
_cell_length_a   9.62120000
_cell_length_b   9.62120000
_cell_length_c   36.33160000
_cell_angle_alpha   90.00000000
_cell_angle_beta   90.00000000
_cell_angle_gamma   120.00000000
_symmetry_Int_Tables_number   148
_chemical_formula_structural   Tl12CrMo37W15SgSe66
_chemical_formula_sum   'Tl12 Cr1 Mo37 W15 Sg1 Se66'
_cell_volume   2912.55168553
_cell_formula_units_Z   1
loop_
 _symmetry_equiv_pos_site_id
 _symmetry_equiv_pos_as_xyz
  1  'x, y, z'
  2  '-x, -y, -z'
  3  '-y, x-y, z'
  4  'y, -x+y, -z'
  5  '-x+y, -x, z'
  6  'x-y, x, -z'
  7  'x+2/3, y+1/3, z+1/3'
  8  '-x+2/3, -y+1/3, -z+1/3'
  9  '-y+2/3, x-y+1/3, z+1/3'
  10  'y+2/3, -x+y+1/3, -z+1/3'
  11  '-x+y+2/3, -x+1/3, z+1/3'
  12  'x-y+2/3, x+1/3, -z+1/3'
  13  'x+1/3, y+2/3, z+2/3'
  14  '-x+1/3, -y+2/3, -z+2/3'
  15  '-y+1/3, x-y+2/3, z+2/3'
  16  'y+1/3, -x+y+2/3, -z+2/3'
  17  '-x+y+1/3, -x+2/3, z+2/3'
  18  'x-y+1/3, x+2/3, -z+2/3'
loop_
 _atom_site_type_symbol
 _atom_site_label
 _atom_site_symmetry_multiplicity
 _atom_site_fract_x
 _atom_site_fract_y
 _atom_site_fract_z
 _atom_site_occupancy
  Tl  Tl0  6  0.00000000  0.00000000  0.17088567  1.0
  Tl  Tl1  6  0.00000000  0.00000000  0.26767200  1.0
  Mo  Mo2  18  0.01546333  0.16857667  0.03141567  1.0
  W+  W3  18  0.01502000  0.16529000  0.59341300  0.8333333333333334
  Cr+  Cr4  18  0.01502000  0.16529000  0.59341300
  0.05555555555555555
  Mo+  Mo5  18  0.01502000  0.16529000  0.59341300
  0.05555555555555555
  Sg+  Sg6  18  0.01502000  0.16529000  0.59341300
  0.05555555555555555
  Mo  Mo7  18  0.00891000  0.16497000  0.46988200  1.0
  Se  Se8  18  0.00695667  0.37451333  0.63995933  1.0
  Se  Se9  18  0.00700333  0.37100667  0.07853767  1.0
  Se  Se10  18  0.01183333  0.36278667  0.19903867  1.0
  Se  Se11  6  0.00000000  0.00000000  0.35157000  1.0
  Se  Se12  6  0.00000033  0.00000000  0.08628667  1.0
