# generated using pymatgen
data_Cs3Db1Ta0.5Nb1V0.5F18
_symmetry_space_group_name_H-M  'R -3 :H'
_cell_length_a   7.86600000
_cell_length_b   7.86600000
_cell_length_c   8.16200000
_cell_angle_alpha   90.00000000
_cell_angle_beta   90.00000000
_cell_angle_gamma   120.00000000
_symmetry_Int_Tables_number   148
_chemical_formula_structural   Cs3Db1Ta0.5Nb1V0.5F18
_chemical_formula_sum   'Cs3 Db1 Ta0.5 Nb1 V0.5 F18'
_cell_volume   437.35601750
_cell_formula_units_Z   1
loop_
 _symmetry_equiv_pos_site_id
 _symmetry_equiv_pos_as_xyz
  1  'x, y, z'
  2  '-x, -y, -z'
  3  '-y, x-y, z'
  4  'y, -x+y, -z'
  5  '-x+y, -x, z'
  6  'x-y, x, -z'
  7  'x+2/3, y+1/3, z+1/3'
  8  '-x+2/3, -y+1/3, -z+1/3'
  9  '-y+2/3, x-y+1/3, z+1/3'
  10  'y+2/3, -x+y+1/3, -z+1/3'
  11  '-x+y+2/3, -x+1/3, z+1/3'
  12  'x-y+2/3, x+1/3, -z+1/3'
  13  'x+1/3, y+2/3, z+2/3'
  14  '-x+1/3, -y+2/3, -z+2/3'
  15  '-y+1/3, x-y+2/3, z+2/3'
  16  'y+1/3, -x+y+2/3, -z+2/3'
  17  '-x+y+1/3, -x+2/3, z+2/3'
  18  'x-y+1/3, x+2/3, -z+2/3'
loop_
 _atom_type_symbol
 _atom_type_oxidation_number
  Cs0+  0.0
  Ta0+  0.0
  Nb0+  0.0
  V0+  0.0
  F0+  0.0
  Db0+  0.0
loop_
 _atom_site_type_symbol
 _atom_site_label
 _atom_site_symmetry_multiplicity
 _atom_site_fract_x
 _atom_site_fract_y
 _atom_site_fract_z
 _atom_site_occupancy
  Cs0+  Cs0  3  0.00000000  0.00000000  0.00000000  1.0
  Db0+  Db1  3  0.00000000  0.00000000  0.50000000
  0.3333333333333333
  Nb0+  Nb2  3  0.00000000  0.00000000  0.50000000
  0.3333333333333333
  Ta0+  Ta3  3  0.00000000  0.00000000  0.50000000
  0.16666666666666666
  V0+  V4  3  0.00000000  0.00000000  0.50000000
  0.16666666666666666
  F0+  F5  18  0.05843333  0.21566667  0.63476667  1.0
