# generated using pymatgen
data_Co6P6H18O24Lv5Po
_symmetry_space_group_name_H-M  'R -3 :H'
_cell_length_a   15.95600000
_cell_length_b   15.95600000
_cell_length_c   7.70300000
_cell_angle_alpha   90.00000000
_cell_angle_beta   90.00000000
_cell_angle_gamma   120.00000000
_symmetry_Int_Tables_number   148
_chemical_formula_structural   Co6P6H18O24Lv5Po
_chemical_formula_sum   'Co18 P18 H54 O72 Lv15 Po3.0'
_cell_volume   1698.39453938
_cell_formula_units_Z   3
loop_
 _symmetry_equiv_pos_site_id
 _symmetry_equiv_pos_as_xyz
  1  'x, y, z'
  2  '-x, -y, -z'
  3  '-y, x-y, z'
  4  'y, -x+y, -z'
  5  '-x+y, -x, z'
  6  'x-y, x, -z'
  7  'x+2/3, y+1/3, z+1/3'
  8  '-x+2/3, -y+1/3, -z+1/3'
  9  '-y+2/3, x-y+1/3, z+1/3'
  10  'y+2/3, -x+y+1/3, -z+1/3'
  11  '-x+y+2/3, -x+1/3, z+1/3'
  12  'x-y+2/3, x+1/3, -z+1/3'
  13  'x+1/3, y+2/3, z+2/3'
  14  '-x+1/3, -y+2/3, -z+2/3'
  15  '-y+1/3, x-y+2/3, z+2/3'
  16  'y+1/3, -x+y+2/3, -z+2/3'
  17  '-x+y+1/3, -x+2/3, z+2/3'
  18  'x-y+1/3, x+2/3, -z+2/3'
loop_
 _atom_site_type_symbol
 _atom_site_label
 _atom_site_symmetry_multiplicity
 _atom_site_fract_x
 _atom_site_fract_y
 _atom_site_fract_z
 _atom_site_occupancy
  Co  Co0  18  0.01201000  0.74049000  0.18941000  1.0
  P  P1  18  0.06776667  0.57455333  0.24625333  1.0
  H  H2  18  0.02766667  0.16033333  0.34133333  1.0
  H  H3  18  0.02900000  0.16100000  0.97400000  1.0
  H  H4  18  0.04400000  0.12200000  0.83500000  1.0
  O  O5  18  0.00020000  0.14520000  0.90730000  1.0
  O  O6  18  0.02396667  0.47033333  0.30853333  1.0
  O  O7  18  0.03153333  0.86536667  0.68066667  1.0
  O  O8  18  0.08353333  0.84066667  0.38666667  1.0
  Lv+  Lv9  18  0.00436667  0.61813333  0.29233333
  0.8333333333333334
  Po+  Po10  18  0.00436667  0.61813333  0.29233333
  0.16666666666666666
