# generated using pymatgen
data_Fr6.5Na1.5H88C80N32
_symmetry_space_group_name_H-M  'I -4'
_cell_length_a   13.72500000
_cell_length_b   13.72500000
_cell_length_c   10.85900000
_cell_angle_alpha   90.00000000
_cell_angle_beta   90.00000000
_cell_angle_gamma   90.00000000
_symmetry_Int_Tables_number   82
_chemical_formula_structural   Fr6.5Na1.5H88C80N32
_chemical_formula_sum   'Fr6.5 Na1.5 H88 C80 N32'
_cell_volume   2045.57091187
_cell_formula_units_Z   1
loop_
 _symmetry_equiv_pos_site_id
 _symmetry_equiv_pos_as_xyz
  1  'x, y, z'
  2  'y, -x, -z'
  3  '-x, -y, z'
  4  '-y, x, -z'
  5  'x+1/2, y+1/2, z+1/2'
  6  'y+1/2, -x+1/2, -z+1/2'
  7  '-x+1/2, -y+1/2, z+1/2'
  8  '-y+1/2, x+1/2, -z+1/2'
loop_
 _atom_site_type_symbol
 _atom_site_label
 _atom_site_symmetry_multiplicity
 _atom_site_fract_x
 _atom_site_fract_y
 _atom_site_fract_z
 _atom_site_occupancy
  Fr+  Fr0  8  0.11300000  0.28700000  0.04100000  0.8125
  Na+  Na1  8  0.11300000  0.28700000  0.04100000  0.1875
  H  H2  8  0.00040000  0.62880000  0.70300000  1.0
  H  H3  8  0.01390000  0.86300000  0.44300000  1.0
  H  H4  8  0.09000000  0.68200000  0.89500000  1.0
  H  H5  8  0.09470000  0.60900000  0.30400000  1.0
  H  H6  8  0.09500000  0.88900000  0.04000000  1.0
  H  H7  8  0.09540000  0.20900000  0.80200000  1.0
  H  H8  8  0.10400000  0.81000000  0.73000000  1.0
  H  H9  8  0.11300000  0.69400000  0.02800000  1.0
  H  H10  8  0.15400000  0.15600000  0.39600000  1.0
  H  H11  8  0.16600000  0.21400000  0.27300000  1.0
  H  H12  8  0.18300000  0.29600000  0.55300000  1.0
  C  C13  8  0.01772000  0.62616000  0.61480000  1.0
  C  C14  8  0.02890000  0.87015000  0.36680000  1.0
  C  C15  8  0.04218000  0.13973000  0.27720000  1.0
  C  C16  8  0.05250000  0.36896000  0.52270000  1.0
  C  C17  8  0.06860000  0.61949000  0.38120000  1.0
  C  C18  8  0.07560000  0.88299000  0.13300000  1.0
  C  C19  8  0.10900000  0.14520000  0.77730000  1.0
  C  C20  8  0.11554000  0.36200000  0.02640000  1.0
  C  C21  8  0.13870000  0.65840000  0.94760000  1.0
  C  C22  8  0.14640000  0.15720000  0.30960000  1.0
  N  N23  8  0.01857000  0.13349000  0.15884000  1.0
  N  N24  8  0.02689000  0.37273000  0.40446000  1.0
  N  N25  8  0.11288000  0.61870000  0.59235000  1.0
  N  N26  8  0.11445000  0.12254000  0.65729000  1.0
