# generated using pymatgen
data_Ba0.33333333Na8Sr0.33333333Be1.33333333Al2Si8Cl2O24
_symmetry_space_group_name_H-M  'I -4'
_cell_length_a   8.71168000
_cell_length_b   8.71168000
_cell_length_c   8.92140000
_cell_angle_alpha   90.00000000
_cell_angle_beta   90.00000000
_cell_angle_gamma   90.00000000
_symmetry_Int_Tables_number   82
_chemical_formula_structural
Ba0.33333333Na8Sr0.33333333Be1.33333333Al2Si8Cl2O24
_chemical_formula_sum
'Ba0.33333333 Na8 Sr0.33333333 Be1.33333333 Al2 Si8 Cl2 O24'
_cell_volume   677.07509704
_cell_formula_units_Z   1
loop_
 _symmetry_equiv_pos_site_id
 _symmetry_equiv_pos_as_xyz
  1  'x, y, z'
  2  'y, -x, -z'
  3  '-x, -y, z'
  4  '-y, x, -z'
  5  'x+1/2, y+1/2, z+1/2'
  6  'y+1/2, -x+1/2, -z+1/2'
  7  '-x+1/2, -y+1/2, z+1/2'
  8  '-y+1/2, x+1/2, -z+1/2'
loop_
 _atom_site_type_symbol
 _atom_site_label
 _atom_site_symmetry_multiplicity
 _atom_site_fract_x
 _atom_site_fract_y
 _atom_site_fract_z
 _atom_site_occupancy
  Na  Na0  8  0.16340000  0.19860000  0.18360000  1
  Sr+  Sr1  2  0.00000000  0.50000000  0.25000000
  0.16666666666666666
  Be+  Be2  2  0.00000000  0.50000000  0.25000000
  0.6666666666666666
  Ba+  Ba3  2  0.00000000  0.50000000  0.25000000
  0.16666666666666666
  Al  Al4  2  0.00000000  0.50000000  0.75000000  1
  Si  Si5  8  0.01170000  0.25400000  0.49490000  1
  Cl  Cl6  2  0.00000000  0.00000000  0.00000000  1
  O  O7  8  0.03130000  0.65680000  0.34730000  1
  O  O8  8  0.06370000  0.35380000  0.64010000  1
  O  O9  8  0.13890000  0.85080000  0.54890000  1
