# generated using pymatgen
data_Ho10Pb4.33333333C1.66666667
_symmetry_space_group_name_H-M  'P 63/m c m'
_cell_length_a   8.84700000
_cell_length_b   8.84700000
_cell_length_c   6.45800000
_cell_angle_alpha   90.00000000
_cell_angle_beta   90.00000000
_cell_angle_gamma   120.00000000
_symmetry_Int_Tables_number   193
_chemical_formula_structural   Ho10Pb4.33333333C1.66666667
_chemical_formula_sum   'Ho10 Pb4.33333333 C1.66666667'
_cell_volume   437.74452901
_cell_formula_units_Z   1
loop_
 _symmetry_equiv_pos_site_id
 _symmetry_equiv_pos_as_xyz
  1  'x, y, z'
  2  '-x, -y, -z'
  3  'x-y, x, z+1/2'
  4  '-x+y, -x, -z+1/2'
  5  '-y, x-y, z'
  6  'y, -x+y, -z'
  7  '-x, -y, z+1/2'
  8  'x, y, -z+1/2'
  9  '-x+y, -x, z'
  10  'x-y, x, -z'
  11  'y, -x+y, z+1/2'
  12  '-y, x-y, -z+1/2'
  13  '-y, -x, -z'
  14  'y, x, z'
  15  '-x, -x+y, -z+1/2'
  16  'x, x-y, z+1/2'
  17  '-x+y, y, -z'
  18  'x-y, -y, z'
  19  'y, x, -z+1/2'
  20  '-y, -x, z+1/2'
  21  'x, x-y, -z'
  22  '-x, -x+y, z'
  23  'x-y, -y, -z+1/2'
  24  '-x+y, y, z+1/2'
loop_
 _atom_site_type_symbol
 _atom_site_label
 _atom_site_symmetry_multiplicity
 _atom_site_fract_x
 _atom_site_fract_y
 _atom_site_fract_z
 _atom_site_occupancy
  Ho  Ho0  6  0.00000000  0.23400000  0.25000000  1.0
  Ho  Ho1  4  0.33333333  0.66666667  0.00000000  1.0
  C+  C2  6  0.00000000  0.39500000  0.75000000  0.2777777777777778
  Pb+  Pb3  6  0.00000000  0.39500000  0.75000000
  0.7222222222222222
