# generated using pymatgen
data_Hf0.33333333Zr0.33333333Ti1Rf0.33333333I6
_symmetry_space_group_name_H-M  'P 63/m c m'
_cell_length_a   7.25000000
_cell_length_b   7.25000000
_cell_length_c   6.64000000
_cell_angle_alpha   90.00000000
_cell_angle_beta   90.00000000
_cell_angle_gamma   120.00000000
_symmetry_Int_Tables_number   193
_chemical_formula_structural
Hf0.33333333Zr0.33333333Ti1Rf0.33333333I6
_chemical_formula_sum
'Hf0.33333333 Zr0.33333333 Ti1 Rf0.33333333 I6'
_cell_volume   302.25585630
_cell_formula_units_Z   1
loop_
 _symmetry_equiv_pos_site_id
 _symmetry_equiv_pos_as_xyz
  1  'x, y, z'
  2  '-x, -y, -z'
  3  'x-y, x, z+1/2'
  4  '-x+y, -x, -z+1/2'
  5  '-y, x-y, z'
  6  'y, -x+y, -z'
  7  '-x, -y, z+1/2'
  8  'x, y, -z+1/2'
  9  '-x+y, -x, z'
  10  'x-y, x, -z'
  11  'y, -x+y, z+1/2'
  12  '-y, x-y, -z+1/2'
  13  '-y, -x, -z'
  14  'y, x, z'
  15  '-x, -x+y, -z+1/2'
  16  'x, x-y, z+1/2'
  17  '-x+y, y, -z'
  18  'x-y, -y, z'
  19  'y, x, -z+1/2'
  20  '-y, -x, z+1/2'
  21  'x, x-y, -z'
  22  '-x, -x+y, z'
  23  'x-y, -y, -z+1/2'
  24  '-x+y, y, z+1/2'
loop_
 _atom_site_type_symbol
 _atom_site_label
 _atom_site_symmetry_multiplicity
 _atom_site_fract_x
 _atom_site_fract_y
 _atom_site_fract_z
 _atom_site_occupancy
  Ti+  Ti0  2  0.00000000  0.00000000  0.00000000  0.5
  Zr+  Zr1  2  0.00000000  0.00000000  0.00000000
  0.16666666666666666
  Rf+  Rf2  2  0.00000000  0.00000000  0.00000000
  0.16666666666666666
  Hf+  Hf3  2  0.00000000  0.00000000  0.00000000
  0.16666666666666666
  I  I4  6  0.00000000  0.32500000  0.25000000  1
