# generated using pymatgen
data_Fe10Si3GeFlPb
_symmetry_space_group_name_H-M  'P 63/m c m'
_cell_length_a   6.74160000
_cell_length_b   6.74160000
_cell_length_c   4.70790000
_cell_angle_alpha   90.00000000
_cell_angle_beta   90.00000000
_cell_angle_gamma   120.00000000
_symmetry_Int_Tables_number   193
_chemical_formula_structural   Fe10Si3GeFlPb
_chemical_formula_sum   'Fe10 Si3 Ge1.0 Fl1.0 Pb1.0'
_cell_volume   185.30358562
_cell_formula_units_Z   1
loop_
 _symmetry_equiv_pos_site_id
 _symmetry_equiv_pos_as_xyz
  1  'x, y, z'
  2  '-x, -y, -z'
  3  'x-y, x, z+1/2'
  4  '-x+y, -x, -z+1/2'
  5  '-y, x-y, z'
  6  'y, -x+y, -z'
  7  '-x, -y, z+1/2'
  8  'x, y, -z+1/2'
  9  '-x+y, -x, z'
  10  'x-y, x, -z'
  11  'y, -x+y, z+1/2'
  12  '-y, x-y, -z+1/2'
  13  '-y, -x, -z'
  14  'y, x, z'
  15  '-x, -x+y, -z+1/2'
  16  'x, x-y, z+1/2'
  17  '-x+y, y, -z'
  18  'x-y, -y, z'
  19  'y, x, -z+1/2'
  20  '-y, -x, z+1/2'
  21  'x, x-y, -z'
  22  '-x, -x+y, z'
  23  'x-y, -y, -z+1/2'
  24  '-x+y, y, z+1/2'
loop_
 _atom_site_type_symbol
 _atom_site_label
 _atom_site_symmetry_multiplicity
 _atom_site_fract_x
 _atom_site_fract_y
 _atom_site_fract_z
 _atom_site_occupancy
  Fe  Fe0  6  0.00000000  0.23000000  0.25000000  1
  Fe  Fe1  4  0.33333333  0.66666667  0.00000000  1
  Si+  Si2  6  0.00000000  0.40000000  0.75000000  0.5
  Ge+  Ge3  6  0.00000000  0.40000000  0.75000000
  0.16666666666666666
  Fl+  Fl4  6  0.00000000  0.40000000  0.75000000
  0.16666666666666666
  Pb+  Pb5  6  0.00000000  0.40000000  0.75000000
  0.16666666666666666
