# generated using pymatgen
data_Na4Mg2Si10Se1.5O22Lv0.5
_symmetry_space_group_name_H-M  'P 1 2/n 1'
_cell_length_a   9.41800000
_cell_length_b   8.64700000
_cell_length_c   5.27400000
_cell_angle_alpha   90.00000000
_cell_angle_beta   108.13000000
_cell_angle_gamma   90.00000000
_symmetry_Int_Tables_number   13
_chemical_formula_structural   Na4Mg2Si10Se1.5O22Lv0.5
_chemical_formula_sum   'Na4 Mg2 Si10 Se1.5 O22 Lv0.5'
_cell_volume   408.17762018
_cell_formula_units_Z   1
loop_
 _symmetry_equiv_pos_site_id
 _symmetry_equiv_pos_as_xyz
  1  'x, y, z'
  2  '-x, -y, -z'
  3  '-x+1/2, y, -z+1/2'
  4  'x+1/2, -y, z+1/2'
loop_
 _atom_site_type_symbol
 _atom_site_label
 _atom_site_symmetry_multiplicity
 _atom_site_fract_x
 _atom_site_fract_y
 _atom_site_fract_z
 _atom_site_occupancy
  Na  Na0  2  0.25000000  0.54330000  0.25000000  1
  Na  Na1  2  0.25000000  0.94870000  0.75000000  1
  Mg  Mg2  2  0.25000000  0.34510000  0.75000000  1
  Si  Si3  4  0.03720000  0.66520000  0.73550000  1
  Si  Si4  4  0.04470000  0.84860000  0.22700000  1
  Si  Si5  2  0.25000000  0.15310000  0.25000000  1
  O  O6  4  0.09300000  0.75270000  0.50700000  1
  O  O7  4  0.09820000  0.49500000  0.79110000  1
  O  O8  4  0.12340000  0.01460000  0.30770000  1
  O  O9  4  0.13800000  0.15570000  0.89830000  1
  O  O10  4  0.14330000  0.30660000  0.34380000  1
  Se+  Se11  4  0.11280000  0.76650000  0.01190000  0.375
  O+  O12  4  0.11280000  0.76650000  0.01190000  0.5
  Lv+  Lv13  4  0.11280000  0.76650000  0.01190000  0.125
