# generated using pymatgen
data_K5RbNa2Mn2InGa2BH8
_symmetry_space_group_name_H-M  'P -4 n 2'
_cell_length_a   5.55260000
_cell_length_b   5.55260000
_cell_length_c   6.07271000
_cell_angle_alpha   90.00000000
_cell_angle_beta   90.00000000
_cell_angle_gamma   90.00000000
_symmetry_Int_Tables_number   118
_chemical_formula_structural   K5RbNa2Mn2InGa2BH8
_chemical_formula_sum   'K5 Rb1 Na2 Mn2 In1 Ga2 B1 H8'
_cell_volume   187.22994924
_cell_formula_units_Z   1
loop_
 _symmetry_equiv_pos_site_id
 _symmetry_equiv_pos_as_xyz
  1  'x, y, z'
  2  'y, -x, -z'
  3  '-x, -y, z'
  4  '-y, x, -z'
  5  '-x+1/2, y+1/2, z+1/2'
  6  '-y+1/2, -x+1/2, -z+1/2'
  7  'x+1/2, -y+1/2, z+1/2'
  8  'y+1/2, x+1/2, -z+1/2'
loop_
 _atom_site_type_symbol
 _atom_site_label
 _atom_site_symmetry_multiplicity
 _atom_site_fract_x
 _atom_site_fract_y
 _atom_site_fract_z
 _atom_site_occupancy
  Na+  Na0  8  0.03800000  0.77800000  0.78800000  0.25
  K+  K1  8  0.03800000  0.77800000  0.78800000  0.625
  Rb+  Rb2  8  0.03800000  0.77800000  0.78800000  0.125
  Mn  Mn3  2  0.00000000  0.00000000  0.50000000  1.0
  Ga+  Ga4  4  0.24800000  0.74800000  0.75000000  0.5
  In+  In5  4  0.24800000  0.74800000  0.75000000  0.25
  B+  B6  4  0.24800000  0.74800000  0.75000000  0.25
  H  H7  8  0.14000000  0.32500000  0.41406000  1.0
