# generated using pymatgen
data_Zn1.44444444Cn0.55555556Sb4
_symmetry_space_group_name_H-M  'P -4 n 2'
_cell_length_a   6.58500000
_cell_length_b   6.58500000
_cell_length_c   6.58500000
_cell_angle_alpha   90.00000000
_cell_angle_beta   90.00000000
_cell_angle_gamma   90.00000000
_symmetry_Int_Tables_number   118
_chemical_formula_structural   Zn1.44444444Cn0.55555556Sb4
_chemical_formula_sum   'Zn1.44444444 Cn0.55555556 Sb4'
_cell_volume   285.54025162
_cell_formula_units_Z   1
loop_
 _symmetry_equiv_pos_site_id
 _symmetry_equiv_pos_as_xyz
  1  'x, y, z'
  2  'y, -x, -z'
  3  '-x, -y, z'
  4  '-y, x, -z'
  5  '-x+1/2, y+1/2, z+1/2'
  6  '-y+1/2, -x+1/2, -z+1/2'
  7  'x+1/2, -y+1/2, z+1/2'
  8  'y+1/2, x+1/2, -z+1/2'
loop_
 _atom_site_type_symbol
 _atom_site_label
 _atom_site_symmetry_multiplicity
 _atom_site_fract_x
 _atom_site_fract_y
 _atom_site_fract_z
 _atom_site_occupancy
  Zn+  Zn0  2  0.00000000  0.00000000  0.00000000
  0.7222222222222222
  Cn+  Cn1  2  0.00000000  0.00000000  0.00000000
  0.2777777777777778
  Sb  Sb2  4  0.16000000  0.66000000  0.75000000  1
