# generated using pymatgen
data_Mn4.5Tc2Re1Bh0.5Te16O40
_symmetry_space_group_name_H-M  'P 42/n b c :2'
_cell_length_a   8.82000000
_cell_length_b   8.82000000
_cell_length_c   13.04000000
_cell_angle_alpha   90.00000000
_cell_angle_beta   90.00000000
_cell_angle_gamma   90.00000000
_symmetry_Int_Tables_number   133
_chemical_formula_structural   Mn4.5Tc2Re1Bh0.5Te16O40
_chemical_formula_sum   'Mn4.5 Tc2 Re1 Bh0.5 Te16 O40'
_cell_volume   1014.41289600
_cell_formula_units_Z   1
loop_
 _symmetry_equiv_pos_site_id
 _symmetry_equiv_pos_as_xyz
  1  'x, y, z'
  2  '-y+1/2, x, z+1/2'
  3  '-x+1/2, -y+1/2, z'
  4  'y, -x+1/2, z+1/2'
  5  'x, -y+1/2, -z'
  6  '-y+1/2, -x+1/2, -z+1/2'
  7  '-x+1/2, y, -z'
  8  'y, x, -z+1/2'
  9  '-x, -y, -z'
  10  'y+1/2, -x, -z+1/2'
  11  'x+1/2, y+1/2, -z'
  12  '-y, x+1/2, -z+1/2'
  13  '-x, y+1/2, z'
  14  'y+1/2, x+1/2, z+1/2'
  15  'x+1/2, -y, z'
  16  '-y, -x, z+1/2'
loop_
 _atom_type_symbol
 _atom_type_oxidation_number
  Mn0+  0.0
  Re0+  0.0
  Tc0+  0.0
  Te0+  0.0
  O0+  0.0
  Bh0+  0.0
loop_
 _atom_site_type_symbol
 _atom_site_label
 _atom_site_symmetry_multiplicity
 _atom_site_fract_x
 _atom_site_fract_y
 _atom_site_fract_z
 _atom_site_occupancy
  Mn0+  Mn0  4  0.25000000  0.25000000  0.00000000  1.0
  Tc0+  Tc1  4  0.25000000  0.25000000  0.25000000  0.5
  Re0+  Re2  4  0.25000000  0.25000000  0.25000000  0.25
  Bh0+  Bh3  4  0.25000000  0.25000000  0.25000000  0.125
  Mn0+  Mn4  4  0.25000000  0.25000000  0.25000000  0.125
  Te0+  Te5  16  0.03770000  0.56470000  0.38230000  1.0
  O0+  O6  16  0.01500000  0.12400000  0.55500000  1.0
  O0+  O7  16  0.10200000  0.16300000  0.14700000  1.0
  O0+  O8  8  0.05800000  0.05800000  0.75000000  1.0
