# generated using pymatgen
data_Ce6Bi5B4As3
_symmetry_space_group_name_H-M  'I m m m'
_cell_length_a   3.56530000
_cell_length_b   6.31600000
_cell_length_c   10.71300000
_cell_angle_alpha   90.00000000
_cell_angle_beta   90.00000000
_cell_angle_gamma   90.00000000
_symmetry_Int_Tables_number   71
_chemical_formula_structural   Ce6Bi5B4As3
_chemical_formula_sum   'Ce6 Bi5 B4 As3'
_cell_volume   241.23999201
_cell_formula_units_Z   1
loop_
 _symmetry_equiv_pos_site_id
 _symmetry_equiv_pos_as_xyz
  1  'x, y, z'
  2  '-x, -y, -z'
  3  '-x, -y, z'
  4  'x, y, -z'
  5  'x, -y, -z'
  6  '-x, y, z'
  7  '-x, y, -z'
  8  'x, -y, z'
  9  'x+1/2, y+1/2, z+1/2'
  10  '-x+1/2, -y+1/2, -z+1/2'
  11  '-x+1/2, -y+1/2, z+1/2'
  12  'x+1/2, y+1/2, -z+1/2'
  13  'x+1/2, -y+1/2, -z+1/2'
  14  '-x+1/2, y+1/2, z+1/2'
  15  '-x+1/2, y+1/2, -z+1/2'
  16  'x+1/2, -y+1/2, z+1/2'
loop_
 _atom_site_type_symbol
 _atom_site_label
 _atom_site_symmetry_multiplicity
 _atom_site_fract_x
 _atom_site_fract_y
 _atom_site_fract_z
 _atom_site_occupancy
  Ce  Ce0  4  0.00000000  0.50000000  0.20560000  1.0
  Ce  Ce1  2  0.00000000  0.00000000  0.00000000  1.0
  B  B2  4  0.00000000  0.14160000  0.50000000  1.0
  Bi+  Bi3  8  0.00000000  0.25520000  0.38070000  0.625
  As+  As4  8  0.00000000  0.25520000  0.38070000  0.375
