# generated using pymatgen
data_Bh0.66666667Mn1.33333333O6
_symmetry_space_group_name_H-M  'P 63 2 2'
_cell_length_a   4.84800000
_cell_length_b   4.84800000
_cell_length_c   4.48000000
_cell_angle_alpha   90.00000000
_cell_angle_beta   90.00000000
_cell_angle_gamma   120.00000000
_symmetry_Int_Tables_number   182
_chemical_formula_structural   Bh0.66666667Mn1.33333333O6
_chemical_formula_sum   'Bh0.66666667 Mn1.33333333 O6'
_cell_volume   91.18719739
_cell_formula_units_Z   1
loop_
 _symmetry_equiv_pos_site_id
 _symmetry_equiv_pos_as_xyz
  1  'x, y, z'
  2  'x-y, x, z+1/2'
  3  '-y, x-y, z'
  4  '-x, -y, z+1/2'
  5  '-x+y, -x, z'
  6  'y, -x+y, z+1/2'
  7  '-y, -x, -z+1/2'
  8  '-x, -x+y, -z'
  9  '-x+y, y, -z+1/2'
  10  'y, x, -z'
  11  'x, x-y, -z+1/2'
  12  'x-y, -y, -z'
loop_
 _atom_type_symbol
 _atom_type_oxidation_number
  Mn0+  0.0
  O0+  0.0
  Bh0+  0.0
loop_
 _atom_site_type_symbol
 _atom_site_label
 _atom_site_symmetry_multiplicity
 _atom_site_fract_x
 _atom_site_fract_y
 _atom_site_fract_z
 _atom_site_occupancy
  Bh0+  Bh0  2  0.33333333  0.66666667  0.25000000
  0.3333333333333333
  Mn0+  Mn1  2  0.33333333  0.66666667  0.25000000
  0.6666666666666666
  O0+  O2  6  0.00000000  0.33333333  0.00000000  1.0
