# generated using pymatgen
data_Ti3RfHfZrO2
_symmetry_space_group_name_H-M  'P 63 2 2'
_cell_length_a   5.61720000
_cell_length_b   5.61720000
_cell_length_c   5.18500000
_cell_angle_alpha   90.00000000
_cell_angle_beta   90.00000000
_cell_angle_gamma   120.00000000
_symmetry_Int_Tables_number   182
_chemical_formula_structural   Ti3RfHfZrO2
_chemical_formula_sum   'Ti3 Rf1.0 Hf1.0 Zr1.0 O2'
_cell_volume   141.68346415
_cell_formula_units_Z   1
loop_
 _symmetry_equiv_pos_site_id
 _symmetry_equiv_pos_as_xyz
  1  'x, y, z'
  2  'x-y, x, z+1/2'
  3  '-y, x-y, z'
  4  '-x, -y, z+1/2'
  5  '-x+y, -x, z'
  6  'y, -x+y, z+1/2'
  7  '-y, -x, -z+1/2'
  8  '-x, -x+y, -z'
  9  '-x+y, y, -z+1/2'
  10  'y, x, -z'
  11  'x, x-y, -z+1/2'
  12  'x-y, -y, -z'
loop_
 _atom_site_type_symbol
 _atom_site_label
 _atom_site_symmetry_multiplicity
 _atom_site_fract_x
 _atom_site_fract_y
 _atom_site_fract_z
 _atom_site_occupancy
  Ti+  Ti0  6  0.00000000  0.33333333  0.00000000  0.5
  Rf+  Rf1  6  0.00000000  0.33333333  0.00000000
  0.16666666666666666
  Zr+  Zr2  6  0.00000000  0.33333333  0.00000000
  0.16666666666666666
  Hf+  Hf3  6  0.00000000  0.33333333  0.00000000
  0.16666666666666666
  O  O4  2  0.33333333  0.66666667  0.25000000  1.0
