# generated using pymatgen
data_K1.66666667Rb0.33333333I0.33333333Cl1Ts0.33333333O6F0.33333333
_symmetry_space_group_name_H-M  'P 63 2 2'
_cell_length_a   5.48400000
_cell_length_b   5.48400000
_cell_length_c   5.17700000
_cell_angle_alpha   90.00000000
_cell_angle_beta   90.00000000
_cell_angle_gamma   120.00000000
_symmetry_Int_Tables_number   182
_chemical_formula_structural
K1.66666667Rb0.33333333I0.33333333Cl1Ts0.33333333O6F0.33333333
_chemical_formula_sum
'K1.66666667 Rb0.33333333 I0.33333333 Cl1 Ts0.33333333 O6 F0.33333333'
_cell_volume   134.83532582
_cell_formula_units_Z   1
loop_
 _symmetry_equiv_pos_site_id
 _symmetry_equiv_pos_as_xyz
  1  'x, y, z'
  2  'x-y, x, z+1/2'
  3  '-y, x-y, z'
  4  '-x, -y, z+1/2'
  5  '-x+y, -x, z'
  6  'y, -x+y, z+1/2'
  7  '-y, -x, -z+1/2'
  8  '-x, -x+y, -z'
  9  '-x+y, y, -z+1/2'
  10  'y, x, -z'
  11  'x, x-y, -z+1/2'
  12  'x-y, -y, -z'
loop_
 _atom_type_symbol
 _atom_type_oxidation_number
  K0+  0.0
  Rb0+  0.0
  I0+  0.0
  Cl0+  0.0
  O0+  0.0
  F0+  0.0
  Ts0+  0.0
loop_
 _atom_site_type_symbol
 _atom_site_label
 _atom_site_symmetry_multiplicity
 _atom_site_fract_x
 _atom_site_fract_y
 _atom_site_fract_z
 _atom_site_occupancy
  K0+  K0  2  0.00000000  0.00000000  0.25000000  0.8333333333333334
  Rb0+  Rb1  2  0.00000000  0.00000000  0.25000000
  0.16666666666666666
  Cl0+  Cl2  2  0.33333333  0.66666667  0.25000000  0.5
  I0+  I3  2  0.33333333  0.66666667  0.25000000
  0.16666666666666666
  Ts0+  Ts4  2  0.33333333  0.66666667  0.25000000
  0.16666666666666666
  F0+  F5  2  0.33333333  0.66666667  0.25000000
  0.16666666666666666
  O0+  O6  6  0.00000000  0.33000000  0.00000000  1.0
