# generated using pymatgen
data_Ba2GaPo3B3Te4S
_symmetry_space_group_name_H-M  'P 63 2 2'
_cell_length_a   5.22700000
_cell_length_b   5.22700000
_cell_length_c   8.80200000
_cell_angle_alpha   90.00000000
_cell_angle_beta   90.00000000
_cell_angle_gamma   120.00000000
_symmetry_Int_Tables_number   182
_chemical_formula_structural   Ba2GaPo3B3Te4S
_chemical_formula_sum   'Ba2 Ga1 Po3 B3 Te4 S1.0'
_cell_volume   208.26533830
_cell_formula_units_Z   1
loop_
 _symmetry_equiv_pos_site_id
 _symmetry_equiv_pos_as_xyz
  1  'x, y, z'
  2  'x-y, x, z+1/2'
  3  '-y, x-y, z'
  4  '-x, -y, z+1/2'
  5  '-x+y, -x, z'
  6  'y, -x+y, z+1/2'
  7  '-y, -x, -z+1/2'
  8  '-x, -x+y, -z'
  9  '-x+y, y, -z+1/2'
  10  'y, x, -z'
  11  'x, x-y, -z+1/2'
  12  'x-y, -y, -z'
loop_
 _atom_type_symbol
 _atom_type_oxidation_number
  Ba2+  2.0
  Ga3+  3.0
  Po2-  -2.0
  B3+  3.0
  Te2-  -2.0
  S2-  -2.0
loop_
 _atom_site_type_symbol
 _atom_site_label
 _atom_site_symmetry_multiplicity
 _atom_site_fract_x
 _atom_site_fract_y
 _atom_site_fract_z
 _atom_site_occupancy
  Ba2+  Ba0  2  0.00000000  0.00000000  0.25000000  1.0
  Ga3+  Ga1  4  0.33333333  0.66666667  0.05100000  0.25
  B3+  B2  4  0.33333333  0.66666667  0.05100000  0.75
  Te2-  Te3  2  0.33333333  0.66666667  0.25000000  0.5
  Po2-  Po4  2  0.33333333  0.66666667  0.25000000  0.5
  Te2-  Te5  6  0.00000000  0.34300000  0.00000000  0.5
  S2-  S6  6  0.00000000  0.34300000  0.00000000
  0.16666666666666666
  Po2-  Po7  6  0.00000000  0.34300000  0.00000000
  0.3333333333333333
