# generated using pymatgen
data_La2Te1.66666667At0.33333333I0.33333333Cl1O0.33333333F0.33333333
_symmetry_space_group_name_H-M  'P 4/n m m :1'
_cell_length_a   4.11900000
_cell_length_b   4.11900000
_cell_length_c   6.88300000
_cell_angle_alpha   90.00000000
_cell_angle_beta   90.00000000
_cell_angle_gamma   90.00000000
_symmetry_Int_Tables_number   129
_chemical_formula_structural
La2Te1.66666667At0.33333333I0.33333333Cl1O0.33333333F0.33333333
_chemical_formula_sum
'La2 Te1.66666667 At0.33333333 I0.33333333 Cl1 O0.33333333 F0.33333333'
_cell_volume   116.77808616
_cell_formula_units_Z   1
loop_
 _symmetry_equiv_pos_site_id
 _symmetry_equiv_pos_as_xyz
  1  'x, y, z'
  2  '-y+1/2, x+1/2, z'
  3  '-x, -y, z'
  4  'y+1/2, -x+1/2, z'
  5  'x+1/2, -y+1/2, -z'
  6  '-y, -x, -z'
  7  '-x+1/2, y+1/2, -z'
  8  'y, x, -z'
  9  '-x+1/2, -y+1/2, -z'
  10  'y, -x, -z'
  11  'x+1/2, y+1/2, -z'
  12  '-y, x, -z'
  13  '-x, y, z'
  14  'y+1/2, x+1/2, z'
  15  'x, -y, z'
  16  '-y+1/2, -x+1/2, z'
loop_
 _atom_site_type_symbol
 _atom_site_label
 _atom_site_symmetry_multiplicity
 _atom_site_fract_x
 _atom_site_fract_y
 _atom_site_fract_z
 _atom_site_occupancy
  La  La0  2  0.00000000  0.50000000  0.17800000  1
  Te+  Te1  2  0.00000000  0.00000000  0.00000000
  0.8333333333333334
  O+  O2  2  0.00000000  0.00000000  0.00000000  0.16666666666666666
  At+  At3  2  0.00000000  0.50000000  0.63500000
  0.16666666666666666
  Cl+  Cl4  2  0.00000000  0.50000000  0.63500000  0.5
  I+  I5  2  0.00000000  0.50000000  0.63500000  0.16666666666666666
  F+  F6  2  0.00000000  0.50000000  0.63500000  0.16666666666666666
