# generated using pymatgen
data_Fr2Cs2KRbFe6B6P6H6O34Lv2
_symmetry_space_group_name_H-M  'P 32 2 1'
_cell_length_a   7.48440000
_cell_length_b   7.48440000
_cell_length_c   12.84360000
_cell_angle_alpha   90.00000000
_cell_angle_beta   90.00000000
_cell_angle_gamma   120.00000000
_symmetry_Int_Tables_number   154
_chemical_formula_structural   Fr2Cs2KRbFe6B6P6H6O34Lv2
_chemical_formula_sum
'Fr2.0 Cs2.0 K1.0 Rb1.0 Fe6 B6 P6 H6 O34 Lv2.0'
_cell_volume   623.06217007
_cell_formula_units_Z   1
loop_
 _symmetry_equiv_pos_site_id
 _symmetry_equiv_pos_as_xyz
  1  'x, y, z'
  2  '-y, x-y, z+2/3'
  3  '-x+y, -x, z+1/3'
  4  'y, x, -z'
  5  'x-y, -y, -z+1/3'
  6  '-x, -x+y, -z+2/3'
loop_
 _atom_site_type_symbol
 _atom_site_label
 _atom_site_symmetry_multiplicity
 _atom_site_fract_x
 _atom_site_fract_y
 _atom_site_fract_z
 _atom_site_occupancy
  Fr+  Fr0  6  0.11400000  0.43200000  0.97200000
  0.3333333333333333
  Cs+  Cs1  6  0.11400000  0.43200000  0.97200000
  0.3333333333333333
  K+  K2  6  0.11400000  0.43200000  0.97200000  0.16666666666666666
  Rb+  Rb3  6  0.11400000  0.43200000  0.97200000
  0.16666666666666666
  Fe  Fe4  3  0.00000000  0.75741000  0.83336667  1.0
  Fe  Fe5  3  0.00000000  0.86565000  0.33333333  1.0
  B  B6  6  0.25250000  0.68870000  0.20840000  1.0
  P  P7  6  0.07325000  0.74932000  0.56970667  1.0
  H  H8  6  0.25200000  0.67300000  0.76566667  1.0
  O  O9  6  0.02700000  0.80340000  0.00024000  1.0
  O  O10  6  0.06370000  0.59610000  0.14346000  1.0
  O  O11  6  0.08650000  0.20760000  0.15453333  1.0
  O  O12  6  0.21200000  0.65040000  0.81149667  1.0
  Lv+  Lv13  6  0.16480000  0.41190000  0.94680000
  0.3333333333333333
  O+  O14  6  0.16480000  0.41190000  0.94680000  0.6666666666666666
  O  O15  6  0.24500000  0.51870000  0.27259333  1.0
