# generated using pymatgen
data_Sn1.66666667C1.33333333O6
_symmetry_space_group_name_H-M  'P 32 2 1'
_cell_length_a   4.54040000
_cell_length_b   4.54040000
_cell_length_c   5.17610000
_cell_angle_alpha   90.00000000
_cell_angle_beta   90.00000000
_cell_angle_gamma   120.00000000
_symmetry_Int_Tables_number   154
_chemical_formula_structural   Sn1.66666667C1.33333333O6
_chemical_formula_sum   'Sn1.66666667 C1.33333333 O6'
_cell_volume   92.41054251
_cell_formula_units_Z   1
loop_
 _symmetry_equiv_pos_site_id
 _symmetry_equiv_pos_as_xyz
  1  'x, y, z'
  2  '-y, x-y, z+2/3'
  3  '-x+y, -x, z+1/3'
  4  'y, x, -z'
  5  'x-y, -y, -z+1/3'
  6  '-x, -x+y, -z+2/3'
loop_
 _atom_type_symbol
 _atom_type_oxidation_number
  Sn0+  0.0
  C0+  0.0
  O0+  0.0
loop_
 _atom_site_type_symbol
 _atom_site_label
 _atom_site_symmetry_multiplicity
 _atom_site_fract_x
 _atom_site_fract_y
 _atom_site_fract_z
 _atom_site_occupancy
  C0+  C0  3  0.00000000  0.43800000  0.33333333  0.4444444444444444
  Sn0+  Sn1  3  0.00000000  0.43800000  0.33333333
  0.5555555555555556
  O0+  O2  6  0.08000000  0.68500000  0.56673333  1.0
