# generated using pymatgen
data_Fr0.5Cs4.5Rb1.0Cd3H36C30N12
_symmetry_space_group_name_H-M  'P 32 2 1'
_cell_length_a   8.63350000
_cell_length_b   8.63350000
_cell_length_c   13.74020000
_cell_angle_alpha   90.00000000
_cell_angle_beta   90.00000000
_cell_angle_gamma   120.00000000
_symmetry_Int_Tables_number   154
_chemical_formula_structural   Fr0.5Cs4.5Rb1.0Cd3H36C30N12
_chemical_formula_sum   'Fr0.5 Cs4.5 Rb1.0 Cd3 H36 C30 N12'
_cell_volume   886.94659883
_cell_formula_units_Z   1
loop_
 _symmetry_equiv_pos_site_id
 _symmetry_equiv_pos_as_xyz
  1  'x, y, z'
  2  '-y, x-y, z+2/3'
  3  '-x+y, -x, z+1/3'
  4  'y, x, -z'
  5  'x-y, -y, -z+1/3'
  6  '-x, -x+y, -z+2/3'
loop_
 _atom_site_type_symbol
 _atom_site_label
 _atom_site_symmetry_multiplicity
 _atom_site_fract_x
 _atom_site_fract_y
 _atom_site_fract_z
 _atom_site_occupancy
  Cs+  Cs0  6  0.10670000  0.40090000  0.20606667  0.75
  Fr+  Fr1  6  0.10670000  0.40090000  0.20606667
  0.08333333333333333
  Rb+  Rb2  6  0.10670000  0.40090000  0.20606667
  0.16666666666666666
  Cd  Cd3  3  0.00000000  0.53334000  0.83336667  1.0
  H  H4  6  0.02600000  0.90220000  0.92750000  1.0
  H  H5  6  0.05260000  0.20360000  0.92806667  1.0
  H  H6  6  0.10310000  0.72910000  0.55800000  1.0
  H  H7  6  0.23590000  0.71040000  0.48770000  1.0
  H  H8  6  0.23650000  0.52270000  0.35676667  1.0
  H  H9  6  0.24650000  0.67150000  0.28746667  1.0
  C  C10  6  0.03040000  0.24540000  0.70070000  1.0
  C  C11  6  0.11350000  0.23010000  0.62036667  1.0
  C  C12  6  0.20600000  0.51100000  0.64480000  1.0
  C  C13  6  0.22630000  0.76560000  0.54630000  1.0
  C  C14  6  0.29100000  0.58950000  0.29776667  1.0
  N  N15  6  0.08910000  0.42320000  0.71650000  1.0
  N  N16  6  0.17420000  0.77480000  0.91770000  1.0
