# generated using pymatgen
data_Sn1Pb2Se1.0O4.5Lv0.5
_symmetry_space_group_name_H-M  'P 32 2 1'
_cell_length_a   4.91427000
_cell_length_b   4.91427000
_cell_length_c   5.40580000
_cell_angle_alpha   90.00000000
_cell_angle_beta   90.00000000
_cell_angle_gamma   120.00000000
_symmetry_Int_Tables_number   154
_chemical_formula_structural   Sn1Pb2Se1.0O4.5Lv0.5
_chemical_formula_sum   'Sn1 Pb2 Se1.0 O4.5 Lv0.5'
_cell_volume   113.05990945
_cell_formula_units_Z   1
loop_
 _symmetry_equiv_pos_site_id
 _symmetry_equiv_pos_as_xyz
  1  'x, y, z'
  2  '-y, x-y, z+2/3'
  3  '-x+y, -x, z+1/3'
  4  'y, x, -z'
  5  'x-y, -y, -z+1/3'
  6  '-x, -x+y, -z+2/3'
loop_
 _atom_type_symbol
 _atom_type_oxidation_number
  Sn+  1.0
  Pb+  1.0
  Se+  1.0
  O+  1.0
  Lv+  1.0
loop_
 _atom_site_type_symbol
 _atom_site_label
 _atom_site_symmetry_multiplicity
 _atom_site_fract_x
 _atom_site_fract_y
 _atom_site_fract_z
 _atom_site_occupancy
  Pb+  Pb0  3  0.00000000  0.47230000  0.33333333
  0.6666666666666666
  Sn+  Sn1  3  0.00000000  0.47230000  0.33333333
  0.3333333333333333
  Se+  Se2  6  0.15020000  0.73420000  0.54523333
  0.16666666666666666
  O+  O3  6  0.15020000  0.73420000  0.54523333  0.75
  Lv+  Lv4  6  0.15020000  0.73420000  0.54523333
  0.08333333333333333
