# generated using pymatgen
data_Po3.5Te2.5H12W3N6O3
_symmetry_space_group_name_H-M  'P 32 2 1'
_cell_length_a   5.79842000
_cell_length_b   5.79842000
_cell_length_c   9.23410000
_cell_angle_alpha   90.00000000
_cell_angle_beta   90.00000000
_cell_angle_gamma   120.00000000
_symmetry_Int_Tables_number   154
_chemical_formula_structural   Po3.5Te2.5H12W3N6O3
_chemical_formula_sum   'Po3.5 Te2.5 H12 W3 N6 O3'
_cell_volume   268.87136028
_cell_formula_units_Z   1
loop_
 _symmetry_equiv_pos_site_id
 _symmetry_equiv_pos_as_xyz
  1  'x, y, z'
  2  '-y, x-y, z+2/3'
  3  '-x+y, -x, z+1/3'
  4  'y, x, -z'
  5  'x-y, -y, -z+1/3'
  6  '-x, -x+y, -z+2/3'
loop_
 _atom_site_type_symbol
 _atom_site_label
 _atom_site_symmetry_multiplicity
 _atom_site_fract_x
 _atom_site_fract_y
 _atom_site_fract_z
 _atom_site_occupancy
  Te+  Te0  6  0.23510000  0.49200000  0.25370000
  0.4166666666666667
  Po+  Po1  6  0.23510000  0.49200000  0.25370000
  0.5833333333333334
  H  H2  6  0.12260000  0.44880000  0.71923333  1.0
  H  H3  6  0.18140000  0.38620000  0.94573333  1.0
  W  W4  3  0.00000000  0.19210000  0.33333333  1.0
  N  N5  6  0.00658000  0.25728000  0.75438333  1.0
  O  O6  3  0.00000000  0.80510000  0.83333333  1.0
