# generated using pymatgen
data_Ta0.33333333Db0.16666667Nb0.33333333V0.16666667Cu3S4
_symmetry_space_group_name_H-M  'P -4 3 m'
_cell_length_a   5.37000000
_cell_length_b   5.37000000
_cell_length_c   5.37000000
_cell_angle_alpha   90.00000000
_cell_angle_beta   90.00000000
_cell_angle_gamma   90.00000000
_symmetry_Int_Tables_number   215
_chemical_formula_structural
Ta0.33333333Db0.16666667Nb0.33333333V0.16666667Cu3S4
_chemical_formula_sum
'Ta0.33333333 Db0.16666667 Nb0.33333333 V0.16666667 Cu3 S4'
_cell_volume   154.85415300
_cell_formula_units_Z   1
loop_
 _symmetry_equiv_pos_site_id
 _symmetry_equiv_pos_as_xyz
  1  'x, y, z'
  2  'y, -x, -z'
  3  '-x, -y, z'
  4  '-y, x, -z'
  5  'x, -y, -z'
  6  'y, x, z'
  7  '-x, y, -z'
  8  '-y, -x, z'
  9  'z, x, y'
  10  '-z, y, -x'
  11  'z, -x, -y'
  12  '-z, -y, x'
  13  '-z, x, -y'
  14  'z, y, x'
  15  '-z, -x, y'
  16  'z, -y, -x'
  17  'y, z, x'
  18  '-x, -z, y'
  19  '-y, z, -x'
  20  'x, -z, -y'
  21  '-y, -z, x'
  22  'x, z, y'
  23  'y, -z, -x'
  24  '-x, z, -y'
loop_
 _atom_type_symbol
 _atom_type_oxidation_number
  Ta5+  5.0
  Nb5+  5.0
  V5+  5.0
  Cu+  1.0
  S2-  -2.0
  Db5+  5.0
loop_
 _atom_site_type_symbol
 _atom_site_label
 _atom_site_symmetry_multiplicity
 _atom_site_fract_x
 _atom_site_fract_y
 _atom_site_fract_z
 _atom_site_occupancy
  Ta5+  Ta0  1  0.00000000  0.00000000  0.00000000
  0.3333333333333333
  Db5+  Db1  1  0.00000000  0.00000000  0.00000000
  0.16666666666666666
  V5+  V2  1  0.00000000  0.00000000  0.00000000
  0.16666666666666666
  Nb5+  Nb3  1  0.00000000  0.00000000  0.00000000
  0.3333333333333333
  Cu+  Cu4  3  0.00000000  0.00000000  0.50000000  1.0
  S2-  S5  4  0.23500000  0.23500000  0.23500000  1.0
