# generated using pymatgen
data_SiSnGePb8FlCl8O8Lv4
_symmetry_space_group_name_H-M  'P 4/m b m'
_cell_length_a   8.16000000
_cell_length_b   8.16000000
_cell_length_c   8.88300000
_cell_angle_alpha   90.00000000
_cell_angle_beta   90.00000000
_cell_angle_gamma   90.00000000
_symmetry_Int_Tables_number   127
_chemical_formula_structural   SiSnGePb8FlCl8O8Lv4
_chemical_formula_sum   'Si1 Sn1 Ge1 Pb8 Fl1 Cl8 O8 Lv4'
_cell_volume   591.47988480
_cell_formula_units_Z   1
loop_
 _symmetry_equiv_pos_site_id
 _symmetry_equiv_pos_as_xyz
  1  'x, y, z'
  2  '-x, -y, -z'
  3  '-y, x, z'
  4  'y, -x, -z'
  5  '-x, -y, z'
  6  'x, y, -z'
  7  'y, -x, z'
  8  '-y, x, -z'
  9  'x+1/2, -y+1/2, -z'
  10  '-x+1/2, y+1/2, z'
  11  '-y+1/2, -x+1/2, -z'
  12  'y+1/2, x+1/2, z'
  13  '-x+1/2, y+1/2, -z'
  14  'x+1/2, -y+1/2, z'
  15  'y+1/2, x+1/2, -z'
  16  '-y+1/2, -x+1/2, z'
loop_
 _atom_site_type_symbol
 _atom_site_label
 _atom_site_symmetry_multiplicity
 _atom_site_fract_x
 _atom_site_fract_y
 _atom_site_fract_z
 _atom_site_occupancy
  Pb  Pb0  8  0.16590000  0.66590000  0.25940000  1
  Ge+  Ge1  4  0.17430000  0.32570000  0.00000000  0.25
  Si+  Si2  4  0.17430000  0.32570000  0.00000000  0.25
  Sn+  Sn3  4  0.17430000  0.32570000  0.00000000  0.25
  Fl+  Fl4  4  0.17430000  0.32570000  0.00000000  0.25
  Cl  Cl5  4  0.00000000  0.00000000  0.24280000  1
  Cl  Cl6  4  0.14790000  0.35210000  0.50000000  1
  O  O7  4  0.21100000  0.71100000  0.00000000  1
  O+  O8  8  0.12740000  0.37260000  0.12690000  0.5
  Lv+  Lv9  8  0.12740000  0.37260000  0.12690000  0.5
