# generated using pymatgen
data_K6Po3Se5S10(O10F)2
_symmetry_space_group_name_H-M  'P 4/m b m'
_cell_length_a   12.58200000
_cell_length_b   12.58200000
_cell_length_c   3.93700000
_cell_angle_alpha   90.00000000
_cell_angle_beta   90.00000000
_cell_angle_gamma   90.00000000
_symmetry_Int_Tables_number   127
_chemical_formula_structural   K6Po3Se5S10(O10F)2
_chemical_formula_sum   'K6 Po3 Se5 S10 O20 F2'
_cell_volume   623.25357239
_cell_formula_units_Z   1
loop_
 _symmetry_equiv_pos_site_id
 _symmetry_equiv_pos_as_xyz
  1  'x, y, z'
  2  '-x, -y, -z'
  3  '-y, x, z'
  4  'y, -x, -z'
  5  '-x, -y, z'
  6  'x, y, -z'
  7  'y, -x, z'
  8  '-y, x, -z'
  9  'x+1/2, -y+1/2, -z'
  10  '-x+1/2, y+1/2, z'
  11  '-y+1/2, -x+1/2, -z'
  12  'y+1/2, x+1/2, z'
  13  '-x+1/2, y+1/2, -z'
  14  'x+1/2, -y+1/2, z'
  15  'y+1/2, x+1/2, -z'
  16  '-y+1/2, -x+1/2, z'
loop_
 _atom_site_type_symbol
 _atom_site_label
 _atom_site_symmetry_multiplicity
 _atom_site_fract_x
 _atom_site_fract_y
 _atom_site_fract_z
 _atom_site_occupancy
  K  K0  4  0.17310000  0.67310000  0.00000000  1
  K  K1  2  0.00000000  0.00000000  0.00000000  1
  Se+  Se2  8  0.07700000  0.20710000  0.00000000  0.625
  Po+  Po3  8  0.07700000  0.20710000  0.00000000  0.375
  S  S4  8  0.07269000  0.21451000  0.50000000  1
  S  S5  2  0.00000000  0.50000000  0.50000000  1
  O  O6  8  0.00190000  0.65500000  0.50000000  1
  O  O7  8  0.07010000  0.85900000  0.50000000  1
  O  O8  4  0.21380000  0.28620000  0.50000000  1
  F  F9  2  0.00000000  0.50000000  0.00000000  1
