# generated using pymatgen
data_Mn0.33333333Tc3.33333333Bh0.33333333Si4
_symmetry_space_group_name_H-M  'P 21 3'
_cell_length_a   4.54800000
_cell_length_b   4.54800000
_cell_length_c   4.54800000
_cell_angle_alpha   90.00000000
_cell_angle_beta   90.00000000
_cell_angle_gamma   90.00000000
_symmetry_Int_Tables_number   198
_chemical_formula_structural
Mn0.33333333Tc3.33333333Bh0.33333333Si4
_chemical_formula_sum   'Mn0.33333333 Tc3.33333333 Bh0.33333333 Si4'
_cell_volume   94.07221459
_cell_formula_units_Z   1
loop_
 _symmetry_equiv_pos_site_id
 _symmetry_equiv_pos_as_xyz
  1  'x, y, z'
  2  '-x+1/2, -y, z+1/2'
  3  'x+1/2, -y+1/2, -z'
  4  '-x, y+1/2, -z+1/2'
  5  'z, x, y'
  6  'z+1/2, -x+1/2, -y'
  7  '-z, x+1/2, -y+1/2'
  8  '-z+1/2, -x, y+1/2'
  9  'y, z, x'
  10  '-y, z+1/2, -x+1/2'
  11  '-y+1/2, -z, x+1/2'
  12  'y+1/2, -z+1/2, -x'
loop_
 _atom_site_type_symbol
 _atom_site_label
 _atom_site_symmetry_multiplicity
 _atom_site_fract_x
 _atom_site_fract_y
 _atom_site_fract_z
 _atom_site_occupancy
  Tc+  Tc0  4  0.13800000  0.13800000  0.13800000
  0.8333333333333334
  Mn+  Mn1  4  0.13800000  0.13800000  0.13800000
  0.08333333333333333
  Bh+  Bh2  4  0.13800000  0.13800000  0.13800000
  0.08333333333333333
  Si  Si3  4  0.15400000  0.34600000  0.65400000  1
